*Heading
** Job name: april_7 Model name: Model-1
** Generated by: Abaqus/CAE 2022
*Preprint, echo=NO, model=NO, history=NO, contact=NO
**
** PARTS
**
*Part, name=Part-1
*End Part
**  
**
** ASSEMBLY
**
*Assembly, name=Assembly
**  
*Instance, name=Part-1-1, part=Part-1
*Node
      1,          70.,           0.
      2,           0.,           0.
      3,          15.,          80.
      4,          15.,          90.
      5,           0.,          90.
      6,   64.1666641,           0.
      7,   58.3333321,           0.
      8,         52.5,           0.
      9,   46.6666679,           0.
     10,   40.8333321,           0.
     11,          35.,           0.
     12,    29.166666,           0.
     13,    23.333334,           0.
     14,         17.5,           0.
     15,    11.666667,           0.
     16,   5.83333349,           0.
     17,      18.4375,          75.
     18,       21.875,          70.
     19,      25.3125,          65.
     20,        28.75,          60.
** ... 120 like lines cut
*Element, type=DC2D3
  1,  86,  60,  35
  2,  71,  70,  49
  3,  50,  34,  33
  4,   6,   1,  31
  5,  53,   6,  31
  6,  54,   7,  53
  7,  54,   8,   7
  8,  52,   9,  51
  9,  55,  10,  52
 10,  56,  11,  55
 11,  57,  12,  56
 12,  58,  13,  57
 13,  92,  89,  57
 14,  59,  14,  58
 15,  72,  49,  70
 16, 121,  98, 108
 17, 100,  98,  67
 18, 120, 119,  97
 19, 122, 120,  94
 20, 107,  81, 105
** ... 210 like lines cut
*Nset, nset=Set-1, generate
   1,  140,    1
*Elset, elset=Set-1, generate
   1,  230,    1
** Section: Section-1
*Solid Section, elset=Set-1, material=Concrete
,
*End Instance
**  
*Nset, nset=Set-3, instance=Part-1-1
  2,  5, 35, 36, 37, 38, 39, 40, 41, 42, 43, 44, 45, 46, 47, 48
*Elset, elset=Set-3, instance=Part-1-1
  31,  33,  44,  46,  50,  69,  72,  74,  76,  78,  80,  82,  84,  86, 135
*Nset, nset=Set-4, instance=Part-1-1
  1,  3,  4,  5, 17, 18, 19, 20, 21, 22, 23, 24, 25, 26, 27, 28
 29, 30, 31, 32, 33, 34
*Elset, elset=Set-4, instance=Part-1-1
   3,   4,  27,  29,  30,  31,  47,  51,  53,  57,  61,  94,  96,  97,  98, 100
 102, 105, 106, 111
*End Assembly
** 
** MATERIALS
** 
*Material, name=Concrete
*Conductivity
112320.,
*Density
2690.,
*Elastic
 2.5e+10, 0.2
*Specific Heat
840.,
** ----------------------------------------------------------------
** 
** STEP: Step-1
** 
*Step, name=Step-1, nlgeom=NO
*Heat Transfer, end=PERIOD
1., 10., , ,
** 
** BOUNDARY CONDITIONS
** 
** Name: T_left Type: Temperature
*Boundary
Set-3, 11, 11, 5.
** Name: T_right_top Type: Temperature
*Boundary
Set-4, 11, 11, 10.
** 
** OUTPUT REQUESTS
** 
*Restart, write, frequency=0
** 
** FIELD OUTPUT: F-Output-1
** 
*Output, field
*Node Output
NT, 
*Element Output, directions=YES
TEMP, 
*Output, history, frequency=0
*End Step
