*Heading
** Job name: dam_heat-transfer_test Model name: Model-1
** Generated by: Abaqus/CAE 2022
*Preprint, echo=NO, model=NO, history=NO, contact=NO
**
** PARTS
**
*Part, name=dam
*End Part
**  
**
** ASSEMBLY
**
*Assembly, name=Assembly
**  
*Instance, name=dam-1, part=dam
*Node
      1,          35.,           0.
      2,           0.,           0.
      3,           5.,          30.
      4,           5.,          35.
      5,           0.,          35.
      6,        26.25,           0.
      7,         17.5,           0.
      8,         8.75,           0.
      9,         12.5,         22.5
     10,          20.,          15.
     11,         27.5,          7.5
     12,           0.,         8.75
     13,           0.,         17.5
     14,           0.,        26.25
     15,   13.8317795,   7.57734108
     16,   9.26635551,   14.2654686
*Element, type=DC2D3
 1, 15, 12,  8
 2, 14,  3,  5
 3,  5,  3,  4
 4,  6,  1, 11
 5, 11,  7,  6
 6, 15,  7, 11
 7, 14,  9,  3
 8, 16, 15, 10
 9, 15, 11, 10
10, 12,  2,  8
11, 16, 12, 15
12, 14, 13,  9
13, 15,  8,  7
14, 16, 10,  9
15, 16,  9, 13
16, 16, 13, 12
*Nset, nset=Set-1, generate
  1,  16,   1
*Elset, elset=Set-1, generate
  1,  16,   1
** Section: dam
*Solid Section, elset=Set-1, material=Concrete
,
*End Instance
**  
*Nset, nset=Set-1, instance=dam-1
  2,  5, 12, 13, 14
*Elset, elset=Set-1, instance=dam-1
  2, 10, 12, 16
*Nset, nset=Set-2, instance=dam-1
 1, 2, 6, 7, 8
*Elset, elset=Set-2, instance=dam-1
  4,  5, 10, 13
*End Assembly
** 
** MATERIALS
** 
*Material, name=Concrete
*Conductivity
 0.5,
*Density
2400.,
*Specific Heat
 1.05e-06,
** ----------------------------------------------------------------
** 
** STEP: heat transfer
** 
*Step, name="heat transfer", nlgeom=NO, inc=10000
*Heat Transfer, end=SS, deltmx=4.
0.01, 1., 1e-05, 0.1, 1.
** 
** BOUNDARY CONDITIONS
** 
** Name: T1 Type: Temperature
*Boundary
Set-1, 11, 11, 5.
** Name: T2 Type: Temperature
*Boundary
Set-2, 11, 11, 20.
** 
** OUTPUT REQUESTS
** 
*Restart, write, frequency=0
** 
** FIELD OUTPUT: F-Output-1
** 
*Output, field
*Node Output
NT, 
*Element Output, directions=YES
TEMP, 
*Output, history, frequency=0
*End Step
