*Heading
** Job name: december10 Model name: Model-1
** Generated by: Abaqus/CAE 2022
*Preprint, echo=NO, model=NO, history=NO, contact=NO
**
** PARTS
**
*Part, name=dam
*End Part
**  
**
** ASSEMBLY
**
*Assembly, name=Assembly
**  
*Instance, name=dam-1, part=dam
*Node
      1,         100.,           0.
      2,           0.,           0.
      3,          10.,          80.
      4,          10.,          95.
      5,           0.,          95.
      6,          90.,           0.
      7,          80.,           0.
      8,          70.,           0.
      9,          60.,           0.
     10,          50.,           0.
     11,          40.,           0.
     12,          30.,           0.
     13,          20.,           0.
     14,          10.,           0.
     15,         17.5,   73.3333359
     16,          25.,   66.6666641
     17,         32.5,          60.
     18,          40.,   53.3333321
     19,         47.5,   46.6666679
     20,          55.,          40.
** ... 51 like lines cut
*Element, type=DC2D3
  1, 36, 14, 13
  2, 35,  3, 26
  3, 35, 26,  5
  4,  6,  1, 25
  5, 24,  7,  6
  6, 51, 38, 37
  7, 38,  8, 37
  8, 39,  9, 38
  9, 40, 10, 39
 10, 41, 11, 40
 11, 69, 64, 68
 12, 57, 27, 14
 13, 56, 44, 43
 14, 44, 15, 43
 15, 45, 16, 44
 16, 46, 17, 45
 17, 71, 69, 70
 18, 70, 67, 59
 19, 63, 62, 50
 20, 62, 51, 50
** ... 85 like lines cut
*Nset, nset=Set-1, generate
  1,  71,   1
*Elset, elset=Set-1, generate
   1,  105,    1
** Section: dam
*Solid Section, elset=Set-1, material=concrete
,
*End Instance
**  
*Nset, nset=Set-3, instance=dam-1
  2,  5, 27, 28, 29, 30, 31, 32, 33, 34, 35
*Elset, elset=Set-3, instance=dam-1
  3, 25, 32, 33, 50, 52, 66, 69, 74, 76
*Nset, nset=Set-4, instance=dam-1
  1,  3,  4,  5, 15, 16, 17, 18, 19, 20, 21, 22, 23, 24, 25, 26
*Elset, elset=Set-4, instance=dam-1
  2,  4, 22, 23, 24, 48, 51, 53, 55, 57, 59, 60, 62, 64
*End Assembly
*Amplitude, name=T_air
             0.,             30.,              1.,             28.,              2.,             26.,              3.,             24.
             4.,             22.,              5.,             20.,              6.,             18.,              7.,             16.
             8.,             14.,              9.,             12.,             10.,             10.
** 
** MATERIALS
** 
*Material, name=concrete
*Conductivity
 0.5,
*Density
2400.,
*Specific Heat
 1.05e-06,
** ----------------------------------------------------------------
** 
** STEP: heat transfer
** 
*Step, name="heat transfer", nlgeom=NO, inc=10
*Heat Transfer, end=PERIOD
0.1, 1., , ,
** 
** BOUNDARY CONDITIONS
** 
** Name: T_air Type: Temperature
*Boundary, amplitude=T_air
Set-4, 11, 11, 1.
** Name: T_water Type: Temperature
*Boundary
Set-3, 11, 11, 5.
** 
** OUTPUT REQUESTS
** 
*Restart, write, frequency=0
** 
** FIELD OUTPUT: F-Output-1
** 
*Output, field
*Node Output
NT, 
*Element Output, directions=YES
TEMP, 
*Output, history, frequency=0
*End Step
