*Heading
** Job name: feb3 Model name: Model-1
** Generated by: Abaqus/CAE 2022
*Preprint, echo=NO, model=NO, history=NO, contact=NO
**
** PARTS
**
*Part, name=dam
*End Part
**  
**
** ASSEMBLY
**
*Assembly, name=Assembly
**  
*Instance, name=dam-1, part=dam
*Node
      1,           0.,           0.
      2,          85.,           0.
      3,           0.,          95.
      4,   9.44444466,           0.
      5,   18.8888893,           0.
      6,    28.333334,           0.
      7,   37.7777786,           0.
      8,   47.2222214,           0.
      9,   56.6666679,           0.
     10,   66.1111145,           0.
     11,   75.5555573,           0.
     12,   6.53846169,   87.6923065
     13,   13.0769234,    80.384613
     14,   19.6153851,   73.0769196
     15,   26.1538467,   65.7692337
     16,   32.6923065,   58.4615402
     17,   39.2307701,   51.1538467
     18,   45.7692299,   43.8461533
     19,   52.3076935,   36.5384598
     20,   58.8461533,   29.2307701
** ... 47 like lines cut
*Element, type=DC2D3
  1, 33,  4,  5
  2, 53, 24, 33
  3, 34, 33,  5
  4, 35, 34,  6
  5, 36, 35,  7
  6, 38, 37,  9
  7, 47, 38, 10
  8, 47, 11, 23
  9, 11,  2, 23
 10, 12,  3, 32
 11, 31, 13, 12
 12, 52, 40, 39
 13, 40, 14, 39
 14, 41, 15, 40
 15, 42, 16, 41
 16, 43, 17, 42
 17, 62, 56, 45
 18, 55, 44, 43
 19, 56, 46, 45
 20, 46, 38, 21
** ... 80 like lines cut
*Nset, nset=Set-1, generate
  1,  67,   1
*Elset, elset=Set-1, generate
   1,  100,    1
** Section: dam
*Solid Section, elset=Set-1, material=concrete
,
*End Instance
**  
*Nset, nset=Set-3, instance=dam-1
  1,  3, 24, 25, 26, 27, 28, 29, 30, 31, 32
*Elset, elset=Set-3, instance=dam-1
 10, 22, 29, 30, 47, 51, 64, 67, 69, 71
*Nset, nset=Set-4, instance=dam-1
  2,  3, 12, 13, 14, 15, 16, 17, 18, 19, 20, 21, 22, 23
*Elset, elset=Set-4, instance=dam-1
  9, 10, 11, 21, 40, 42, 43, 46, 48, 50, 52, 54, 55
*End Assembly
** 
** MATERIALS
** 
*Material, name=concrete
*Conductivity
 1.2,
*Density
2400.,
*Elastic
 2e+10, 0.3
*Specific Heat
 1.13,
** ----------------------------------------------------------------
** 
** STEP: HT
** 
*Step, name=HT, nlgeom=NO
*Heat Transfer, end=PERIOD
1., 10., , ,
** 
** BOUNDARY CONDITIONS
** 
** Name: T_air Type: Temperature
*Boundary
Set-4, 11, 11, 20.
** Name: T_water Type: Temperature
*Boundary
Set-3, 11, 11, 5
** 
** OUTPUT REQUESTS
** 
*Restart, write, frequency=0
** 
** FIELD OUTPUT: F-Output-1
** 
*Output, field
*Node Output
NT, 
*Element Output, directions=YES
TEMP, 
*Output, history, frequency=0
*End Step
