*Heading
** Job name: test_20_04 Model name: Model-1
** Generated by: Abaqus/CAE 2022
*Preprint, echo=NO, model=NO, history=NO, contact=NO
**
** PARTS
**
*Part, name=Part-1
*End Part
**  
**
** ASSEMBLY
**
*Assembly, name=Assembly
**  
*Instance, name=Part-1-2, part=Part-1
*Node
      1,   200.439514,   6.25710535
      2,   195.795883,   12.5111303
      3,   191.143951,   18.7589836
      4,   188.036011,   22.9192581
      5,   183.361069,   29.1499138
      6,    178.66687,   35.3660622
      7,   173.949326,    41.564518
      8,   169.204422,    47.742054
      9,   164.428177,   53.8953934
     10,   159.616699,   60.0212059
     11,   156.387558,   64.0881119
     12,   149.872665,   72.1766281
     13,   146.584717,   76.1961517
     14,   141.611694,   82.1915512
     15,   136.589966,   88.1462326
     16,   133.221848,   92.0988159
     17,   128.151794,   98.0124054
     18,   123.075218,   103.920418
     19,   118.008896,   109.837219
     20,   114.645355,   113.793701
** ... 3232 like lines cut
*Element, type=DC2D3
   1,  925,  919,  764
   2, 1114, 1054,  925
   3, 1113,  766, 1112
   4, 1504, 1109, 1428
   5, 1208, 1174, 1107
   6, 1166,  227, 1104
   7, 1409, 1400, 1214
   8, 1290, 1123, 1217
   9, 1899, 1238, 1270
  10, 1344, 1313, 1256
  11, 1763, 1331, 1530
  12, 1470, 1305, 1343
  13, 1727, 1655, 1567
  14, 2067,  472, 1992
  15, 1969, 1766, 1850
  16, 2247, 1808, 1911
  17, 1739,  521, 1681
  18, 1936, 1743, 1840
  19, 1842, 1686, 1745
  20, 1938, 1561, 1723
** ... 6206 like lines cut
*Nset, nset=Set-1, generate
    1,  3252,     1
*Elset, elset=Set-1, generate
    1,  6226,     1
** Section: Section-1
*Solid Section, elset=Set-1, material=Material-1
,
*End Instance
**  
*Nset, nset=Set-8, instance=Part-1-2
   1,   2,   3,   4,   5,   6,   7,   8,   9,  10,  11,  12,  13,  14,  15,  16
  17,  18,  19,  20,  21,  22,  23,  24,  25,  26,  27,  28,  29,  30,  31,  32
  33,  34,  35,  36,  37,  38,  39,  40,  41,  42,  43, 764, 765, 766, 767, 768
 769, 770, 771, 772, 773, 774, 775, 776, 777, 778, 779, 780, 781, 782, 783, 784
 785, 786, 787, 788, 789, 790, 791, 792, 793, 794, 795, 796, 797, 798, 799, 800
 801, 802, 803, 804, 805, 806, 807, 808, 809, 810, 811, 812, 813, 814, 815, 816
 817, 818, 819, 820, 821, 822, 823, 824, 825, 826, 827, 828, 829, 830
*Elset, elset=Set-8, instance=Part-1-2
   67,   68,   69,   70,   76,  128,  132,  135,  137,  139,  157,  160,  164,  166,  168,  191
  192,  193,  194,  199,  219,  234,  235,  248, 1140, 1290, 1314, 1387, 1390, 1414, 1422, 1424
 1427, 1429, 1431, 1432, 1433, 1434, 1435, 1436, 1437, 1440, 1441, 1442, 1444, 1451, 1454, 1456
 1460, 1461, 1462, 1463, 1464, 1466, 1467, 1468, 1470, 1471, 1472, 1474, 1560, 1566, 1567, 1572
 1831, 1837, 1842, 1846, 1849, 1852, 1854, 1858, 1859, 1862, 1864, 1870, 1872, 1874, 1876, 1879
 1884, 1886, 1891, 1906, 1910, 1912, 1914, 1918, 1920, 1922, 1924, 1928, 1932, 1936, 1938, 1944
 1946, 1948, 1949, 1954, 1955, 1958, 1960, 2061, 2073, 2185, 2352, 3466, 6190
*Nset, nset=Set-9, instance=Part-1-2
  43,  44,  45,  46,  47,  48,  49,  50,  51,  52,  53,  54,  55,  56,  57,  58
  59,  60,  61,  62,  63,  64,  65,  66,  67,  68,  69,  70,  71,  72,  73,  74
  75,  76,  77,  78,  79,  80,  81,  82,  83, 831, 832, 833, 834, 835, 836, 837
 838, 839, 840, 841, 842, 843, 844, 845, 846, 847, 848, 849, 850, 851, 852, 853
 854, 855, 856, 857, 858, 859, 860, 861, 862, 863, 864, 865, 866, 867, 868, 869
 870, 871, 872, 873, 874, 875, 876, 877, 878
*Elset, elset=Set-9, instance=Part-1-2
   32,   34,   35,   98,  100,  155,  156,  176,  177,  178,  179,  210,  211,  212,  223,  224
  253,  254,  255,  256,  285,  286,  314,  315,  342,  343,  369,  448,  449,  461,  471,  490
  491,  499,  500,  503,  504,  509,  510, 1093, 1197, 1218, 1226, 1410, 1417, 1418, 1475, 1476
 1484, 1485, 1486, 1487, 1495, 1496, 1497, 1498, 1499, 1500, 1501, 1505, 1507, 1508, 1509, 1510
 1511, 1512, 1513, 1515, 1516, 1519, 1570, 1590, 1602, 1606, 1607, 1609, 1621, 1626, 1628, 1636
 1639, 1642, 1643, 1646, 1667, 2483, 2484, 6176
*End Assembly
*Amplitude, name=Amp-2
             1.,            18.7,              2.,            20.6,              3.,            18.2,              4.,            10.1
             5.,             8.8,              6.,            12.1,              7.,            15.7,              8.,             11.
             9.,            10.9,             10.,            16.6,             11.,            21.1,             12.,            14.4
            13.,             7.6,             14.,             9.3,             15.,            13.4,             16.,            19.7
            17.,            17.9,             18.,            18.9,             19.,            12.8,             20.,            10.7
            21.,            10.7,             22.,              8.,             23.,             6.6,             24.,             7.2
            25.,             3.7,             26.,              5.,             27.,              8.,             28.,            11.5
            29.,            10.4,             30.,            -1.6,             31.,            -3.2,             32.,            -2.3
            33.,            -0.3,             34.,             2.5,             35.,             6.7,             36.,            12.5
            37.,            16.6,             38.,            16.1,             39.,             8.3,             40.,             7.9
            41.,              8.,             42.,             5.7,             43.,             8.9,             44.,            13.2
            45.,            16.7,             46.,            16.6,             47.,            10.8,             48.,             4.2
            49.,              6.,             50.,            12.6,             51.,            19.5,             52.,            23.1
            53.,            22.2,             54.,            15.6,             55.,             8.6,             56.,             5.9
            57.,            12.8,             58.,            19.1,             59.,            18.6,             60.,            21.1
            61.,            19.6,             62.,            12.9,             63.,            14.8,             64.,            18.8
            65.,            20.4,             66.,            20.4,             67.,            15.1,             68.,            15.3
            69.,            13.2,             70.,            18.9,             71.,            18.1,             72.,            11.6
            73.,            11.1,             74.,            13.1,             75.,            17.5,             76.,             8.3
            77.,             8.6,             78.,             6.6,             79.,             8.5,             80.,            12.3
** ... 163 like lines cut
** 
** MATERIALS
** 
*Material, name=Material-1
*Conductivity
112320.,
*Density
2690.,
*Specific Heat
840.,
** ----------------------------------------------------------------
** 
** STEP: Step-1
** 
*Step, name=Step-1, nlgeom=NO, inc=730
*Heat Transfer, end=PERIOD
1., 250., , ,
** 
** BOUNDARY CONDITIONS
** 
** Name: BC-2 Type: Temperature
*Boundary, amplitude=Amp-2
Set-8, 11, 11, 1.
** Name: BC-3 Type: Temperature
*Boundary
Set-9, 11, 11, 5.
** 
** OUTPUT REQUESTS
** 
*Restart, write, frequency=0
** 
** FIELD OUTPUT: F-Output-1
** 
*Output, field
*Node Output
NT, 
*Element Output, directions=YES
TEMP, 
*Output, history, frequency=0
*End Step
