*Heading
** Job name: test_11_04 Model name: Model-1
** Generated by: Abaqus/CAE 2022
*Preprint, echo=NO, model=NO, history=NO, contact=NO
**
** PARTS
**
*Part, name=Part-1
*End Part
**  
**
** ASSEMBLY
**
*Assembly, name=Assembly
**  
*Instance, name=Part-1-1, part=Part-1
*Node
      1,   200.611404,   6.02539682
      2,   196.140091,   12.0480423
      3,   191.661377,   18.0651779
      4,   187.171555,   24.0740337
      5,   182.666946,   30.0718174
      6,   178.143921,   36.0557137
      7,   173.598831,   42.0228691
      8,   169.028107,   47.9704056
      9,   164.428177,   53.8953934
     10,   159.795578,   59.7948532
     11,   155.126831,   65.6657639
     12,    150.41861,    71.505043
     13,    147.25621,   75.3787766
     14,   142.474884,   81.1583481
     15,   137.647354,   86.8993912
     16,   132.784378,   92.6104431
     17,   127.901108,   98.3041763
     18,   123.012573,   103.993385
     19,   118.133728,   109.690903
     20,   114.893982,   113.500183
** ... 3450 like lines cut
*Element, type=DC2D3
   1, 1044,  960,  796
   2, 1125, 1098,  959
   3, 1099,  120,  958
   4, 1100,  119,  957
   5, 1101,  118,  956
   6, 1110,  117,  955
   7, 1109,  116,  954
   8, 1108,  115,  953
   9, 1117,  132, 1116
  10, 1116, 1102,  950
  11, 1115, 1103,  949
  12, 1104,  111,  948
  13, 1105,  110,  947
  14, 1106,  109,  946
  15, 1059,  108,  945
  16, 1058,  107,  944
  17, 1057,  106,  943
  18, 1056,  105,  942
  19, 1068,  142, 1054
  20, 1067,  143, 1053
** ... 6631 like lines cut
*Nset, nset=Set-1, generate
    1,  3470,     1
*Elset, elset=Set-1, generate
    1,  6651,     1
** Section: Section-1
*Solid Section, elset=Set-1, material=Material-1
,
*End Instance
**  
*Nset, nset=Set-3, instance=Part-1-1
  43,  44,  45,  46,  47,  48,  49,  50,  51,  52,  53,  54,  55,  56,  57,  58
  59,  60,  61,  62,  63,  64,  65,  66,  67,  68,  69,  70,  71,  72,  73,  74
  75,  76,  77,  78,  79,  80,  81,  82,  83, 868, 869, 870, 871, 872, 873, 874
 875, 876, 877, 878, 879, 880, 881, 882, 883, 884, 885, 886, 887, 888, 889, 890
 891, 892, 893, 894, 895, 896, 897, 898, 899, 900, 901, 902, 903, 904, 905, 906
 907, 908, 909, 910, 911, 912, 913, 914, 915, 916, 917, 918
*Elset, elset=Set-3, instance=Part-1-1
   39,   40,   77,  127,  174,  176,  183,  191,  202,  228,  379,  406,  432,  457,  530,  548
  567,  568,  574,  579,  580,  581, 1039, 1268, 1269, 1270, 1486, 1552, 1553, 1555, 1556, 1557
 1558, 1559, 1560, 1561, 1562, 1563, 1564, 1565, 1568, 1569, 1570, 1571, 1572, 1573, 1574, 1575
 1577, 1579, 1580, 1581, 1582, 1583, 1586, 1589, 1651, 1657, 1963, 1964, 1967, 1968, 1970, 1973
 1978, 1982, 1987, 1990, 1994, 2001, 2004, 2006, 2009, 2011, 2013, 2026, 2028, 2030, 2032, 2034
 2036, 2039, 2041, 2042, 2049, 2053, 2055, 2057, 2059, 2061, 2818
*Nset, nset=Set-4, instance=Part-1-1
   1,   2,   3,   4,   5,   6,   7,   8,   9,  10,  11,  12,  13,  14,  15,  16
  17,  18,  19,  20,  21,  22,  23,  24,  25,  26,  27,  28,  29,  30,  31,  32
  33,  34,  35,  36,  37,  38,  39,  40,  41,  42,  43, 796, 797, 798, 799, 800
 801, 802, 803, 804, 805, 806, 807, 808, 809, 810, 811, 812, 813, 814, 815, 816
 817, 818, 819, 820, 821, 822, 823, 824, 825, 826, 827, 828, 829, 830, 831, 832
 833, 834, 835, 836, 837, 838, 839, 840, 841, 842, 843, 844, 845, 846, 847, 848
 849, 850, 851, 852, 853, 854, 855, 856, 857, 858, 859, 860, 861, 862, 863, 864
 865, 866, 867
*Elset, elset=Set-4, instance=Part-1-1
   42,   43,   44,   45,   52,   53,  104,  108,  110,  139,  141,  153,  155,  161,  162,  165
  172,  181,  227,  664,  822, 1132, 1222, 1305, 1322, 1337, 1426, 1456, 1468, 1489, 1491, 1495
 1496, 1498, 1500, 1501, 1502, 1503, 1504, 1505, 1507, 1510, 1512, 1514, 1516, 1518, 1520, 1521
 1522, 1523, 1524, 1525, 1527, 1528, 1529, 1531, 1532, 1533, 1535, 1537, 1538, 1539, 1541, 1542
 1544, 1545, 1548, 1549, 1552, 1631, 1643, 1646, 1649, 1665, 1668, 1669, 1678, 1680, 1683, 1687
 1689, 1691, 1695, 1699, 1700, 1702, 1705, 1707, 1713, 1716, 1718, 1722, 1725, 1727, 1729, 1735
 1741, 1743, 1745, 1746, 1751, 1754, 1764, 1771, 1779, 1781, 1791, 1793, 1797, 1799, 1802, 2136
 2140, 2142
*Nset, nset=Set-5, instance=Part-1-1
   1,   2,   3,   4,   5,   6,   7,   8,   9,  10,  11,  12,  13,  14,  15,  16
  17,  18,  19,  20,  21,  22,  23,  24,  25,  26,  27,  28,  29,  30,  31,  32
  33,  34,  35,  36,  37,  38,  39,  40,  41,  42,  43, 796, 797, 798, 799, 800
 801, 802, 803, 804, 805, 806, 807, 808, 809, 810, 811, 812, 813, 814, 815, 816
 817, 818, 819, 820, 821, 822, 823, 824, 825, 826, 827, 828, 829, 830, 831, 832
 833, 834, 835, 836, 837, 838, 839, 840, 841, 842, 843, 844, 845, 846, 847, 848
 849, 850, 851, 852, 853, 854, 855, 856, 857, 858, 859, 860, 861, 862, 863, 864
 865, 866, 867
*Elset, elset=Set-5, instance=Part-1-1
   42,   43,   44,   45,   52,   53,  104,  108,  110,  139,  141,  153,  155,  161,  162,  165
  172,  181,  227,  664,  822, 1132, 1222, 1305, 1322, 1337, 1426, 1456, 1468, 1489, 1491, 1495
 1496, 1498, 1500, 1501, 1502, 1503, 1504, 1505, 1507, 1510, 1512, 1514, 1516, 1518, 1520, 1521
 1522, 1523, 1524, 1525, 1527, 1528, 1529, 1531, 1532, 1533, 1535, 1537, 1538, 1539, 1541, 1542
 1544, 1545, 1548, 1549, 1552, 1631, 1643, 1646, 1649, 1665, 1668, 1669, 1678, 1680, 1683, 1687
 1689, 1691, 1695, 1699, 1700, 1702, 1705, 1707, 1713, 1716, 1718, 1722, 1725, 1727, 1729, 1735
 1741, 1743, 1745, 1746, 1751, 1754, 1764, 1771, 1779, 1781, 1791, 1793, 1797, 1799, 1802, 2136
 2140, 2142
*End Assembly
*Amplitude, name=Amp-1
             1.,              6.,              2.,              5.,              3.,              5.,              4.,              5.
             5.,              6.,              6.,              7.,              7.,              8.,              8.,              9.
             9.,              9.,             10.,             10.,             11.,             12.,             12.,             14.
            13.,             14.,             14.,             17.,             15.,             19.,             16.,             20.
            17.,             21.,             18.,             22.,             19.,             24.,             20.,             26.
            21.,             26.,             22.,             28.,             23.,             29.,             24.,             30.
            25.,             30.,             26.,             30.,             27.,             31.,             28.,             30.
            29.,             30.,             30.,             30.,             31.,             29.,             32.,             28.
            33.,             28.,             34.,             27.,             35.,             24.,             36.,             22.
            37.,             22.,             38.,             20.,             39.,             18.,             40.,             16.
            41.,             16.,             42.,             14.,             43.,             12.,             44.,             10.
            45.,             10.,             46.,              8.,             47.,              7.,             48.,              6.
            49.,              6.,             50.,              5.,             51.,              5.,             52.,              5.
            53.,              6.,             54.,              7.,             55.,              8.,             56.,              9.
            57.,              9.,             58.,             10.,             59.,             12.,             60.,             14.
            61.,             14.,             62.,             17.,             63.,             19.,             64.,             20.
            65.,             21.,             66.,             22.,             67.,             24.,             68.,             26.
            69.,             26.,             70.,             28.,             71.,             29.,             72.,             30.
            73.,             30.,             74.,             30.,             75.,             31.,             76.,             30.
            77.,             30.,             78.,             30.,             79.,             29.,             80.,             28.
** ... 4 like lines cut
** 
** MATERIALS
** 
*Material, name=Material-1
*Conductivity
112320.,
*Density
2690.,
*Specific Heat
840.,
** ----------------------------------------------------------------
** 
** STEP: Step-1
** 
*Step, name=Step-1, nlgeom=NO
*Heat Transfer, end=PERIOD
7., 672., , ,
** 
** BOUNDARY CONDITIONS
** 
** Name: BC-1 Type: Temperature
*Boundary
Set-3, 11, 11, 5.
** Name: BC-2 Type: Temperature
*Boundary, amplitude=Amp-1
Set-5, 11, 11, 1.
** 
** OUTPUT REQUESTS
** 
*Restart, write, frequency=0
** 
** FIELD OUTPUT: F-Output-1
** 
*Output, field
*Node Output
NT, 
*Element Output, directions=YES
TEMP, 
*Output, history, frequency=0
*End Step
