*Heading
** Job name: test-8-04 Model name: Model-1
** Generated by: Abaqus/CAE 2022
*Preprint, echo=NO, model=NO, history=NO, contact=NO
**
** PARTS
**
*Part, name=Part-1
*End Part
**  
**
** ASSEMBLY
**
*Assembly, name=Assembly
**  
*Instance, name=Part-1-1, part=Part-1
*Node
      1,          15.,           0.
      2,           0.,           0.
      3,           5.,          15.
      4,           5.,          20.
      5,           0.,          20.
      6,       13.125,           0.
      7,        11.25,           0.
      8,        9.375,           0.
      9,          7.5,           0.
     10,        5.625,           0.
     11,         3.75,           0.
     12,        1.875,           0.
     13,   6.11111116,    13.333333
     14,   7.22222233,    11.666667
     15,   8.33333302,          10.
     16,   9.44444466,   8.33333302
     17,   10.5555553,   6.66666651
     18,    11.666667,           5.
     19,   12.7777777,   3.33333325
     20,   13.8888893,   1.66666663
** ... 52 like lines cut
*Element, type=DC2D3
  1, 37, 12, 11
  2, 36, 22, 34
  3, 49, 48, 36
  4,  6,  1, 20
  5, 38,  6, 20
  6, 39,  7, 38
  7, 40,  8, 39
  8, 41,  9, 40
  9, 54, 52, 18
 10, 60, 25, 37
 11, 69, 50,  3
 12, 64, 63, 46
 13, 65, 53, 64
 14, 70, 67, 65
 15, 59, 57, 41
 16, 68, 39, 52
 17, 52, 38, 19
 18, 38, 20, 19
 19, 21,  4, 24
 20, 35, 24, 23
** ... 89 like lines cut
*Nset, nset=Set-1, generate
  1,  72,   1
*Elset, elset=Set-1, generate
   1,  109,    1
** Section: Section-1
*Solid Section, elset=Set-1, material=Material-1
,
*End Instance
**  
*Nset, nset=Set-1, instance=Part-1-1
  2,  5, 25, 26, 27, 28, 29, 30, 31, 32, 33
*Elset, elset=Set-1, instance=Part-1-1
 21, 23, 25, 28, 35, 53, 55, 59, 60, 84
*Nset, nset=Set-2, instance=Part-1-1
  1,  3,  4,  5, 13, 14, 15, 16, 17, 18, 19, 20, 21, 22, 23, 24
*Elset, elset=Set-2, instance=Part-1-1
  4, 18, 19, 20, 21, 32, 37, 40, 44, 64, 67, 69, 70, 71
*End Assembly
*Amplitude, name=Amp-1
             0.,              2.,              1.,              4.,              2.,              6.,              3.,              8.
             4.,             10.,              5.,             12.,              6.,             14.,              8.,             16.
             9.,             18.,             10.,             20.
*Amplitude, name=Amp-2
             1.,              2.,              2.,              4.,              3.,              6.,              4.,              8.
             5.,             10.,              6.,             12.,              7.,             14.,              8.,             16.
             9.,             18.,             10.,             20.
** 
** MATERIALS
** 
*Material, name=Material-1
*Conductivity
112320.,
*Density
2690.,
*Specific Heat
840.,
** ----------------------------------------------------------------
** 
** STEP: Step-1
** 
*Step, name=Step-1, nlgeom=NO
*Heat Transfer, end=PERIOD
1., 10., , ,
** 
** BOUNDARY CONDITIONS
** 
** Name: left Type: Temperature
*Boundary
Set-1, 11, 11, 5.
** Name: rigth Type: Temperature
*Boundary, amplitude=Amp-2
Set-2, 11, 11, 1.
** 
** OUTPUT REQUESTS
** 
*Restart, write, frequency=0
** 
** FIELD OUTPUT: F-Output-1
** 
*Output, field
*Node Output
NT, 
*Element Output, directions=YES
TEMP, 
*Output, history, frequency=0
*End Step
