*Heading
** Job name: test_169elements Model name: Model-1
** Generated by: Abaqus/CAE 2022
*Preprint, echo=NO, model=NO, history=NO, contact=NO
**
** PARTS
**
*Part, name=dam
*End Part
**  
**
** ASSEMBLY
**
*Assembly, name=Assembly
**  
*Instance, name=dam-1, part=dam
*Node
      1,          20.,           0.
      2,           0.,           0.
      3,           5.,          30.
      4,           5.,          35.
      5,           0.,          35.
      6,   17.7777786,           0.
      7,   15.5555553,           0.
      8,    13.333333,           0.
      9,   11.1111107,           0.
     10,   8.88888931,           0.
     11,   6.66666651,           0.
     12,   4.44444466,           0.
     13,   2.22222233,           0.
     14,           6.,          28.
     15,           7.,          26.
     16,           8.,          24.
     17,           9.,          22.
     18,          10.,          20.
     19,          11.,          18.
     20,          12.,          16.
** ... 87 like lines cut
*Element, type=DC2D3
  1,  76,  70,  30
  2,  69,  68,   3
  3,  69,  29,  43
  4,   6,   1,  27
  5,  48,   6,  27
  6,  49,   7,  48
  7,  77,  59,  58
  8,  45,   9,  44
  9,  46,  10,  45
 10,  47,  11,  46
 11,  86,  46,  45
 12,  67,  41,  40
 13,  66,  40,  39
 14,  52,  15,  51
 15,  53,  16,  52
 16,  62,  17,  53
 17,  62,  54,  18
 18,  74,  34,  73
 19,  60,  20,  50
 20,  79,  56,  55
** ... 149 like lines cut
*Nset, nset=Set-1, generate
   1,  107,    1
*Elset, elset=Set-1, generate
   1,  169,    1
** Section: dam
*Solid Section, elset=Set-1, material=concrete
,
*End Instance
**  
*Nset, nset=Set-5, instance=dam-1
  2,  5, 30, 31, 32, 33, 34, 35, 36, 37, 38, 39, 40, 41, 42, 43
*Elset, elset=Set-5, instance=dam-1
  12,  13,  27,  28,  41,  80,  81,  82,  84,  91,  94,  96,  99, 101, 103
*Nset, nset=Set-6, instance=dam-1
  1,  2,  6,  7,  8,  9, 10, 11, 12, 13
*Elset, elset=Set-6, instance=dam-1
  4, 28, 29, 43, 45, 47, 49, 51, 53
*End Assembly
** 
** MATERIALS
** 
*Material, name=concrete
*Conductivity
 0.5,
*Density
2400.,
*Specific Heat
 1.05e-06,
** ----------------------------------------------------------------
** 
** STEP: heat transfer
** 
*Step, name="heat transfer", nlgeom=NO, inc=1000
*Heat Transfer, end=SS
0.01, 1., , ,1.
** 
** BOUNDARY CONDITIONS
** 
** Name: BC-1 Type: Temperature
*Boundary
Set-5, 11, 11, 20.
** Name: BC-2 Type: Temperature
*Boundary
Set-6, 11, 11, 3.
** 
** OUTPUT REQUESTS
** 
*Restart, write, frequency=0
** 
** FIELD OUTPUT: F-Output-1
** 
*Output, field
*Node Output
NT, 
*Element Output, directions=YES
TEMP, 
*Output, history, frequency=0
*End Step
