*Heading
** Job name: test_11_04 Model name: Model-1
** Generated by: Abaqus/CAE 2022
*Preprint, echo=NO, model=NO, history=NO, contact=NO
**
** PARTS
**
*Part, name=Part-1
*End Part
**  
**
** ASSEMBLY
**
*Assembly, name=Assembly
**  
*Instance, name=Part-1-1, part=Part-1
*Node
      1,   196.140091,   12.0480433
      2,   190.166183,   20.0691891
      3,   181.161499,   32.0681343
      4,   175.116531,   40.0358543
      5,   165.964951,   51.9230843
      6,   156.687302,   63.7121544
      7,    150.41861,    71.505043
      8,    140.87059,   83.0761337
      9,   131.158127,   94.5096512
     10,   124.641747,   102.096695
     11,   114.893982,   113.500183
     12,   105.286087,   125.021561
     13,   95.9437866,   136.758926
     14,   87.0005722,   148.802597
     15,   81.3301926,   157.040604
     16,    75.944519,   165.467346
     17,    70.889183,   174.096115
     18,   66.2674484,   182.963821
     19,   62.2925987,   192.138168
     20,   59.2157936,   201.649399
** ... 913 like lines cut
*Element, type=DC2D3
   1, 307, 304, 224
   2, 372, 226, 369
   3,  83,   2, 227
   4, 547, 368, 100
   5, 418, 365, 364
   6, 483, 364, 230
   7, 359, 234, 356
   8, 434, 235, 155
   9, 414, 355, 357
  10, 551, 468, 366
  11, 370, 239, 176
  12, 371, 240, 367
  13, 461, 358, 433
  14, 445, 444, 352
  15, 533, 201, 508
  16, 553, 419, 484
  17, 576, 538, 540
  18, 502, 460, 217
  19, 330, 263, 329
  20, 501, 431, 325
** ... 1700 like lines cut
*Nset, nset=Set-1, generate
   1,  933,    1
*Elset, elset=Set-1, generate
    1,  1720,     1
** Section: Section-1
*Solid Section, elset=Set-1, material=Material-1
,
*End Instance
**  
*Nset, nset=Set-3, instance=Part-1-1
  24,  25,  26,  27,  28,  29,  30,  31,  32,  33,  34,  35,  36,  37,  38,  39
  40,  41,  42,  43,  44, 258, 259, 260, 261, 262, 263, 264, 265, 266, 267, 268
 269, 270, 271, 272, 273, 274, 275, 276, 277, 278, 279, 280, 281, 282, 283
*Elset, elset=Set-3, instance=Part-1-1
  98, 112, 126, 191, 192, 196, 199, 200, 203, 382, 419, 420, 425, 426, 427, 428
 430, 431, 432, 433, 434, 438, 441, 472, 476, 482, 483, 485, 486, 488, 492, 495
 497, 500, 501, 504, 506, 507, 514, 516, 520, 522, 524, 526, 527, 529
*Nset, nset=Set-4, instance=Part-1-1
   1,   2,   3,   4,   5,   6,   7,   8,   9,  10,  11,  12,  13,  14,  15,  16
  17,  18,  19,  20,  21,  22,  23,  24, 224, 225, 226, 227, 228, 229, 230, 231
 232, 233, 234, 235, 236, 237, 238, 239, 240, 241, 242, 243, 244, 245, 246, 247
 248, 249, 250, 251, 252, 253, 254, 255, 256, 257
*Elset, elset=Set-4, instance=Part-1-1
   3,  32,  33,  39,  45,  47,  53,  60, 356, 378, 388, 389, 391, 392, 393, 394
 395, 396, 397, 398, 399, 400, 401, 402, 403, 404, 406, 408, 409, 410, 411, 414
 415, 418, 420, 462, 465, 467, 470, 535, 538, 539, 541, 544, 546, 549, 558, 561
 565, 567, 572, 578, 587, 593, 596, 598, 719
*Nset, nset=Set-5, instance=Part-1-1
   1,   2,   3,   4,   5,   6,   7,   8,   9,  10,  11,  12,  13,  14,  15,  16
  17,  18,  19,  20,  21,  22,  23,  24, 224, 225, 226, 227, 228, 229, 230, 231
 232, 233, 234, 235, 236, 237, 238, 239, 240, 241, 242, 243, 244, 245, 246, 247
 248, 249, 250, 251, 252, 253, 254, 255, 256, 257
*Elset, elset=Set-5, instance=Part-1-1
   3,  32,  33,  39,  45,  47,  53,  60, 356, 378, 388, 389, 391, 392, 393, 394
 395, 396, 397, 398, 399, 400, 401, 402, 403, 404, 406, 408, 409, 410, 411, 414
 415, 418, 420, 462, 465, 467, 470, 535, 538, 539, 541, 544, 546, 549, 558, 561
 565, 567, 572, 578, 587, 593, 596, 598, 719
*End Assembly
*Amplitude, name=Amp-1
             1.,              6.,              2.,              5.,              3.,              5.,              4.,              5.
             5.,              6.,              6.,              7.,              7.,              8.,              8.,              9.
             9.,              9.,             10.,             10.,             11.,             12.,             12.,             14.
            13.,             14.,             14.,             17.,             15.,             19.,             16.,             20.
            17.,             21.,             18.,             22.,             19.,             24.,             20.,             26.
            21.,             26.,             22.,             28.,             23.,             29.,             24.,             30.
            25.,             30.,             26.,             30.,             27.,             31.,             28.,             30.
            29.,             30.,             30.,             30.,             31.,             29.,             32.,             28.
            33.,             28.,             34.,             27.,             35.,             24.,             36.,             22.
            37.,             22.,             38.,             20.,             39.,             18.,             40.,             16.
            41.,             16.,             42.,             14.,             43.,             12.,             44.,             10.
            45.,             10.,             46.,              8.,             47.,              7.,             48.,              6.
            49.,              6.,             50.,              5.,             51.,              5.,             52.,              5.
            53.,              6.,             54.,              7.,             55.,              8.,             56.,              9.
            57.,              9.,             58.,             10.,             59.,             12.,             60.,             14.
            61.,             14.,             62.,             17.,             63.,             19.,             64.,             20.
            65.,             21.,             66.,             22.,             67.,             24.,             68.,             26.
            69.,             26.,             70.,             28.,             71.,             29.,             72.,             30.
            73.,             30.,             74.,             30.,             75.,             31.,             76.,             30.
            77.,             30.,             78.,             30.,             79.,             29.,             80.,             28.
** ... 4 like lines cut
** 
** MATERIALS
** 
*Material, name=Material-1
*Conductivity
112320.,
*Density
2690.,
*Specific Heat
840.,
** ----------------------------------------------------------------
** 
** STEP: Step-1
** 
*Step, name=Step-1, nlgeom=NO
*Heat Transfer, end=PERIOD
7., 672., , ,
** 
** BOUNDARY CONDITIONS
** 
** Name: BC-1 Type: Temperature
*Boundary
Set-3, 11, 11, 5.
** Name: BC-2 Type: Temperature
*Boundary, amplitude=Amp-1
Set-5, 11, 11, 1.
** 
** OUTPUT REQUESTS
** 
*Restart, write, frequency=0
** 
** FIELD OUTPUT: F-Output-1
** 
*Output, field
*Node Output
NT, 
*Element Output, directions=YES
TEMP, 
*Output, history, frequency=0
*End Step
