*Heading
** Job name: 1-05 Model name: Model-1
** Generated by: Abaqus/CAE 2022
*Preprint, echo=NO, model=NO, history=NO, contact=NO
**
** PARTS
**
*Part, name=Part-1
*End Part
**  
**
** ASSEMBLY
**
*Assembly, name=Assembly
**  
*Instance, name=Part-1-1, part=Part-1
*Node
      1,          10.,           0.
      2,           0.,           0.
      3,           3.,           7.
      4,           3.,          10.
      5,           0.,          10.
      6,           9.,           0.
      7,           8.,           0.
      8,           7.,           0.
      9,           6.,           0.
     10,           5.,           0.
     11,           4.,           0.
     12,           3.,           0.
     13,           2.,           0.
     14,           1.,           0.
     15,   3.70000005,   6.30000019
     16,    4.4000001,    5.5999999
     17,    5.0999999,    4.9000001
     18,   5.80000019,   4.19999981
     19,          6.5,          3.5
     20,   7.19999981,   2.79999995
** ... 61 like lines cut
*Element, type=DC2D3
  1, 37, 14, 13
  2, 58, 34, 33
  3, 69, 60, 53
  4,  6,  1, 23
  5, 39,  6, 23
  6, 40,  7, 39
  7, 41,  8, 40
  8, 42,  9, 41
  9, 43, 10, 42
 10, 44, 11, 43
 11, 61, 49, 48
 12, 68, 28, 37
 13, 56, 31, 55
 14, 47, 15, 46
 15, 65, 61, 48
 16, 71, 55, 54
 17, 63, 50, 49
 18, 62, 52, 51
 19, 52, 40, 21
 20, 40, 22, 21
** ... 104 like lines cut
*Nset, nset=Set-1, generate
  1,  81,   1
*Elset, elset=Set-1, generate
   1,  124,    1
** Section: Section-1
*Solid Section, elset=Set-1, material=Material-1
,
*End Instance
**  
*Nset, nset=Set-1, instance=Part-1-1
  2,  5, 28, 29, 30, 31, 32, 33, 34, 35, 36
*Elset, elset=Set-1, instance=Part-1-1
  2, 24, 26, 69, 72, 74, 75, 79, 81, 97
*Nset, nset=Set-2, instance=Part-1-1
  1,  3,  4,  5, 15, 16, 17, 18, 19, 20, 21, 22, 23, 24, 25, 26
 27,
*Elset, elset=Set-2, instance=Part-1-1
   4,  20,  21,  22,  24,  37,  38,  53,  56,  58,  60,  62,  63,  65,  67, 100
*End Assembly
*Amplitude, name=Amp-1
             1.,            18.7,              2.,            20.6,              3.,            18.2,              4.,            10.1
             5.,             8.8,              6.,            12.1,              7.,            15.7,              8.,             11.
             9.,            10.9,             10.,            16.6
** 
** MATERIALS
** 
*Material, name=Material-1
*Conductivity
112320.,
*Density
2690.,
*Specific Heat
840.,
** ----------------------------------------------------------------
** 
** STEP: Step-1
** 
*Step, name=Step-1, nlgeom=NO
*Heat Transfer, end=PERIOD
1., 10., , ,
** 
** BOUNDARY CONDITIONS
** 
** Name: BC-1 Type: Temperature
*Boundary
Set-1, 11, 11, 5.
** Name: BC-2 Type: Temperature
*Boundary, amplitude=Amp-1
Set-2, 11, 11, 1.
** 
** OUTPUT REQUESTS
** 
*Restart, write, frequency=0
** 
** FIELD OUTPUT: F-Output-1
** 
*Output, field
*Node Output
NT, 
*Element Output, directions=YES
TEMP, 
*Output, history, frequency=0
*End Step
