*Heading
** Job name: Dam_plane Model name: Model-1
** Generated by: Abaqus/CAE 2022
*Preprint, echo=NO, model=NO, history=NO, contact=NO
**
** PARTS
**
*Part, name=Part-1
*Node
      1,   5.05000019,   31.1499996
      2,   5.05000019,   33.6499977
      3,   7.05000019,   33.6499977
      4,   7.05000019,   31.1499996
      5,   5.05000019,   11.1499987
      6,   5.05000019,   13.6499987
      7,   7.05000019,   13.6499987
      8,   7.05000019,   11.1499987
      9,   12.6000004,           0.
     10,   12.6000004,         32.5
     11,   12.6000004,          47.
     12,           0.,          47.
     13,           0.,          44.
     14,           0.,           0.
     15,   5.04500008,   1.14999998
     16,   5.04500008,    3.6500001
     17,   7.04500008,    3.6500001
     18,   7.04500008,   1.14999998
     19,   5.05000019,   21.1499996
     20,   5.05000019,   23.6499996
** ... 180 like lines cut
*Element, type=DC2D3
  1, 144, 123,  47
  2, 130,  97,  46
  3, 114,  64,  24
  4, 146, 114,  86
  5,  86,  24,  65
  6,  88,  65,  66
  7, 127, 126,  45
  8, 187,  87, 115
  9, 115,  67,  98
 10, 173, 170, 154
 11, 149,  82,  96
 12, 173, 154, 118
 13, 157, 130,  46
 14, 117,  30,  79
 15, 157, 123, 119
 16, 149, 122,  42
 17, 149,  96, 122
 18, 168, 110, 152
 19, 168, 152, 161
 20, 107,  63, 100
** ... 315 like lines cut
*Nset, nset=Concrete-1, generate
   1,   2,   3,   4,   5,   6,   7,   8,   9,  10,  11,  12,  13,  14,  15,  16
  17,  18,  19,  20,  21,  22,  23,  24,  25,  26,  28,  29,  30,  31,  32,  33
  34,  35,  36,  37,  38,  39,  40,  41,  42,  43,  44,  45,  46,  47,  48,  49
  50,  51,  52,  53,  54,  55,  56,  57,  58,  59,  60,  61,  62,  63,  64,  65
  66,  67,  79,  80,  81,  82,  83,  84,  85,  86,  87,  88,  89,  90,  91,  92
  93,  94,  95,  96,  97,  98,  99, 100, 101, 102, 103, 104, 105, 106, 107, 108
 109, 110, 111, 112, 113, 114, 115, 116, 117, 118, 119, 120, 121, 122, 123, 124
 125, 126, 127, 128, 129, 130, 131, 132, 133, 134, 135, 136, 137, 138, 139, 140
 141, 142, 143, 144, 145, 146, 147, 148, 149, 150, 151, 152, 153, 154, 155, 156
 157, 158, 159, 160, 161, 162, 163, 164, 165, 166, 167, 168, 169, 170, 171, 172
 173, 174, 175, 176, 177, 178, 179, 180, 181, 182, 183, 184, 185, 186, 187, 188
 189, 190, 191
*Elset, elset=Concrete-1, generate
   1,  300,    1
*Nset, nset=Concrete-2, generate
   9,  10,  27,  37,  38,  39,  40,  41,  68,  69,  70,  71,  72,  73,  74,  75
  76,  77,  78, 192, 193, 194, 195, 196, 197, 198, 199, 200
*Elset, elset=Concrete-2, generate
 301,  335,    1
*Elset, elset=Concrete-1, generate
   1,  300,    1
*Elset, elset=Concrete-2, generate
 301,  335,    1
*Nset, nset=T_water, generate
 13, 14, 46, 47, 48, 49, 50, 51, 52, 53
*Nset, nset=T_air, generate
 10, 11, 12, 27, 42, 43, 44, 45, 72, 73, 74, 75, 76, 77, 78
*Nset, nset=T_gallery, generate
  1,  2,  3,  4,  5,  6,  7,  8, 15, 16, 17, 18, 19, 20, 21, 22
 23, 24, 26, 28, 29, 30, 31, 32, 33, 34, 35, 36, 56, 57, 58, 59
 60, 61, 62, 63, 64, 65, 66, 67
** Section: Section-1
*Solid Section, elset=Concrete-1, material=Material-2
,
** Section: Section-2
*Solid Section, elset=Concrete-2, material=Material-1
,
*End Part
**  
**
** ASSEMBLY
**
*Assembly, name=Assembly
**  
*Instance, name=Part-1-1, part=Part-1
*End Instance
*Nset, nset=T_water, generate
 13, 14, 46, 47, 48, 49, 50, 51, 52, 53
*Nset, nset=T_air, generate
 10, 11, 12, 27, 42, 43, 44, 45, 72, 73, 74, 75, 76, 77, 78
**  
*End Assembly
** 
** MATERIALS
** 
*Material, name=Material-1
*Conductivity
 1000,
*Density
 950,
*Specific Heat
 1500,
*Material, name=Material-2
*Conductivity
 1500,
*Density
 850,
*Specific Heat
 2500,
** ----------------------------------------------------------------
** 
** STEP: Step-1
** 
*Step, name=Step-1, nlgeom=NO
*Heat Transfer, steady state, deltmx=0.
1., 1., 1e-05, 1., 
** 
** BOUNDARY CONDITIONS
** 
** Name: Water Type: Temperature
*Boundary
T_water, 11, 11, 5.
** Name: Air Type: Temperature
*Boundary
T_air, 11, 11, 25.
** 
** OUTPUT REQUESTS
** 
*Restart, write, frequency=0
** 
** FIELD OUTPUT: F-Output-1
** 
*Output, field, variable=PRESELECT
*Output, history, frequency=0
*End Step
