*Heading
** Job name: 28-04 Model name: Model-1
** Generated by: Abaqus/CAE 2022
*Preprint, echo=NO, model=NO, history=NO, contact=NO
**
** PARTS
**
*Part, name=Part-1
*End Part
**  
**
** ASSEMBLY
**
*Assembly, name=Assembly
**  
*Instance, name=Part-1-1, part=Part-1
*Node
      1,         176.,           0.
      2,         172.,           0.
      3,         168.,           0.
      4,         164.,           0.
      5,         160.,           0.
      6,         156.,           0.
      7,         152.,           0.
      8,         148.,           0.
      9,         144.,           0.
     10,         140.,           0.
     11,         136.,           0.
     12,         130.,           0.
     13,         126.,           0.
     14,         122.,           0.
     15,         118.,           0.
     16,         114.,           0.
     17,         110.,           0.
     18,         106.,           0.
     19,         102.,           0.
     20,          98.,           0.
** ... 4826 like lines cut
*Element, type=DC2D3
   1, 1444, 1150,   43
   2, 1311, 1241, 1150
   3, 1445, 1312, 1242
   4, 1313,   98, 1243
   5, 1314,   99, 1244
   6, 1315,  100, 1245
   7, 1316,  101, 1246
   8, 1451, 1450,  375
   9, 1452, 1318, 1249
  10, 1453, 1319, 1250
  11, 1454, 1320, 1251
  12, 1455, 1321, 1252
  13, 1456, 1322, 1253
  14, 1457, 1323, 1254
  15, 1458, 1324, 1255
  16, 1325,  110, 1256
  17, 1326,  111, 1257
  18, 1327,  112, 1258
  19, 1328,  113, 1259
  20, 1464, 1463,  744
** ... 9340 like lines cut
*Nset, nset=Set-1, generate
    1,  4846,     1
*Elset, elset=Set-1, generate
    1,  9360,     1
** Section: Section-1
*Solid Section, elset=Set-1, material=Material-1
,
*End Instance
**  
*Nset, nset=Set-1, instance=Part-1-1
   45,   95,   96,   97,   98,   99,  100,  101,  102,  103,  104,  105,  106,  107,  108,  109
  110,  111,  112,  113,  114,  115,  116,  117,  118,  119,  120,  121,  122,  123,  124,  125
  126,  127,  128,  129,  130,  131,  132,  133,  134,  135,  136,  137,  138,  139,  140,  141
  142, 1241, 1242, 1243, 1244, 1245, 1246, 1247, 1248, 1249, 1250, 1251, 1252, 1253, 1254, 1255
 1256, 1257, 1258, 1259, 1260, 1261, 1262, 1263, 1264, 1265, 1266, 1267, 1268, 1269, 1270, 1271
 1272, 1273, 1274, 1275, 1276, 1277, 1278, 1279, 1280, 1281, 1282, 1283, 1284, 1285, 1286, 1287
 1288, 1289, 1290, 1291, 1292
*Elset, elset=Set-1, instance=Part-1-1
    4,    5,    6,    7,   16,   17,   18,   19,   28,   29,   30,   31,   40,   41,   42,   43
   50, 2196, 2201, 2204, 2205, 2206, 2207, 2217, 2218, 2219, 2220, 2230, 2231, 2232, 2243, 2244
 2245, 2246, 2290, 2292, 2302, 2304, 2306, 2308, 2310, 2312, 2314, 2316, 2326, 2328, 2330, 2332
 2334, 2336, 2338, 2340, 2348, 2350, 2352, 2354, 2356, 2358, 2360, 2362, 2364, 2374, 2376, 2378
 2380, 2382, 2557, 2559, 2570, 2571, 2573, 2575, 2577, 2579, 2581, 2583, 2585, 2596, 2597, 2599
 2601, 2603, 2605, 2607, 2609, 2611, 2621, 2623, 2625, 2627, 2629, 2631, 2633, 2635, 2637, 2648
 2649, 2651, 2653, 2655
*Nset, nset=Set-2, instance=Part-1-1
   44,   46,   47,   48,   49,   50,   51,   52,   53,   54,   55,   56,   57,   58,   59,   60
   61,   62,   63,   64,   65,   66,   67,   68,   69,   70,   71,   72,   73,   74,   75,   76
   77,   78,   79,   80,   81,   82,   83,   84,   85,   86,   87,   88,   89,   90,   91,   92
   93,   94,   95, 1151, 1152, 1153, 1154, 1155, 1156, 1157, 1158, 1159, 1160, 1161, 1162, 1163
 1164, 1165, 1166, 1167, 1168, 1169, 1170, 1171, 1172, 1173, 1174, 1175, 1176, 1177, 1178, 1179
 1180, 1181, 1182, 1183, 1184, 1185, 1186, 1187, 1188, 1189, 1190, 1191, 1192, 1193, 1194, 1195
 1196, 1197, 1198, 1199, 1200, 1201, 1202, 1203, 1204, 1205, 1206, 1207, 1208, 1209, 1210, 1211
 1212, 1213, 1214, 1215, 1216, 1217, 1218, 1219, 1220, 1221, 1222, 1223, 1224, 1225, 1226, 1227
 1228, 1229, 1230, 1231, 1232, 1233, 1234, 1235, 1236, 1237, 1238, 1239, 1240
*Elset, elset=Set-2, instance=Part-1-1
   99,  149,  248,  335,  416,  418,  456,  494,  530,  565,  567,  601,  634,  666,  700,  731
  759,  814,  816,  840,  887,  888,  909,  910,  931,  951,  970,  987,  990, 1006, 1022, 1037
 1062, 1064, 1065, 1075, 1076, 1086, 1087, 1096, 1097, 1105, 1125, 1129, 1131, 1710, 2087, 2133
 2135, 2137, 2139, 2140, 2141, 2143, 2145, 2147, 2149, 2151, 2152, 2153, 2155, 2157, 2158, 2159
 2161, 2163, 2165, 2167, 2169, 2171, 2172, 2173, 2174, 2175, 2176, 2177, 2178, 2179, 2181, 2183
 2185, 2187, 2188, 2189, 2190, 2191, 2192, 2193, 2194, 2195, 2196, 2254, 2258, 2262, 2264, 2272
 2274, 2276, 2278, 2284, 2664, 2666, 2668, 2679, 2686, 2690, 2692, 2693, 2695, 2699, 2702, 2704
 2726, 2729, 2731, 2741, 2749, 2751, 2754, 2757, 2763, 2767, 2774, 2782, 2784, 2789, 2796, 2813
 2815, 2817, 2820, 2822, 2826, 2828, 2830, 2938, 2944, 2971, 3220
*End Assembly
** 
** MATERIALS
** 
*Material, name=Material-1
*Conductivity
112320.,
*Density
2690.,
*Specific Heat
840.,
** ----------------------------------------------------------------
** 
** STEP: Step-1
** 
*Step, name=Step-1, nlgeom=NO
*Heat Transfer, steady state
1., 1., 1., 1., 
** 
** BOUNDARY CONDITIONS
** 
** Name: BC-1 Type: Temperature
*Boundary
Set-1, 11, 11, 5.
** Name: BC-2 Type: Temperature
*Boundary
Set-2, 11, 11, 20.
** 
** OUTPUT REQUESTS
** 
*Restart, write, frequency=0
** 
** FIELD OUTPUT: F-Output-1
** 
*Output, field
*Node Output
NT, 
*Element Output, directions=YES
TEMP, 
*Output, history, frequency=0
*End Step
