*Heading
** Job name: 3-05_static_3D Model name: Model-1
** Generated by: Abaqus/CAE 2022
*Preprint, echo=NO, model=NO, history=NO, contact=NO
**
** PARTS
**
*Part, name=Geom_2m
*End Part
**  
**
** ASSEMBLY
**
*Assembly, name=Assembly
**  
*Instance, name=Geom_2m-1, part=Geom_2m
*Node
      1,           0.,           0.,          20.
      2,   41.5369987,   221.399994,          20.
      3,   41.5369987,   221.399994,           0.
      4,           0.,           0.,           0.
      5,       55.382,   221.272354,          20.
      6,       55.382,   221.272354,           0.
      7,   205.078995,           0.,           0.
      8,   205.078995,           0.,          20.
      9,   1.82107782,   3.56152606,          20.
     10,   3.63566136,   7.12636518,          20.
     11,   5.43723059,   10.6977949,          20.
     12,   7.21922016,   14.2790308,          20.
     13,   8.97499561,   17.8731861,          20.
     14,   10.6978378,   21.4832382,          20.
     15,   12.3809338,   25.1119843,          20.
     16,   14.0173702,    28.762001,          20.
     17,   15.6001387,   32.4355965,          20.
     18,   17.1223602,   36.1346855,          20.
     19,   18.5813923,   39.8591499,          20.
     20,   19.9786224,   43.6072388,          20.
** ... 8995 like lines cut
*Element, type=DC3D4
    1, 3552, 3553, 3554, 3555
    2, 3556, 3557, 3558, 3559
    3, 3556, 3560, 3561, 3562
    4, 3556, 3561, 3563, 3557
    5, 3556, 3559, 3564, 3565
    6, 3556, 3566, 3562, 3565
    7, 3556, 3558, 3564, 3559
    8, 3567, 3562, 3559, 3561
    9, 3568, 3569, 3570, 3571
   10, 3572, 3573, 3574, 3575
   11, 3572, 3576, 3577, 3573
   12, 3572, 3578, 3579, 3580
   13, 3581, 3572, 3578, 3579
   14, 3572, 3582, 3577, 3583
   15, 3572, 3580, 3584, 3578
   16, 3572, 3582, 3584, 3585
   17, 3572, 3577, 3582, 3585
   18,  926, 3586,  204, 3551
   19, 3551, 3550,  202,  926
   20, 3587, 3588, 3589, 3590
** ... 43265 like lines cut
*Nset, nset=Set-1, generate
    1,  9015,     1
*Elset, elset=Set-1, generate
     1,  43285,      1
** Section: Section-1
*Solid Section, elset=Set-1, material=Material-1
,
*End Instance
**  
*Nset, nset=Set-5, instance=Geom_2m-1
    2,    3,    5,    6,    7,    8,   65,   66,   67,   68,  129,  130,  131,  132,  133,  134
  135,  136,  137,  138,  139,  140,  141,  142,  143,  144,  145,  146,  147,  148,  149,  150
  151,  152,  153,  154,  155,  156,  157,  158,  159,  160,  161,  162,  163,  164,  165,  166
  167,  168,  169,  170,  171,  172,  173,  174,  175,  176,  177,  178,  179,  180,  181,  182
  183,  184,  185,  186,  187,  188,  189,  190,  191,  192,  193,  194,  195,  196,  197,  198
  199,  200,  201,  202,  203,  304,  305,  306,  307,  308,  309,  310,  311,  312,  313,  314
  315,  316,  317,  318,  319,  320,  321,  322,  323,  324,  325,  326,  327,  328,  329,  330
  331,  332,  333,  334,  335,  336,  337,  338,  339,  340,  341,  342,  343,  344,  345,  346
  347,  348,  349,  350,  351,  352,  353,  354,  355,  356,  357,  358,  359,  360,  361,  362
  363,  364,  365,  366,  367,  368,  369,  370,  371,  372,  373,  374,  599,  600,  601,  602
  603,  604,  605,  606, 3284, 3285, 3286, 3287, 3288, 3289, 3290, 3291, 3292, 3293, 3294, 3295
 3296, 3297, 3298, 3299, 3300, 3301, 3302, 3303, 3304, 3305, 3306, 3307, 3308, 3309, 3310, 3311
 3312, 3313, 3314, 3315, 3316, 3317, 3318, 3319, 3320, 3321, 3322, 3323, 3324, 3325, 3326, 3327
 3328, 3329, 3330, 3331, 3332, 3333, 3334, 3335, 3336, 3337, 3338, 3339, 3340, 3341, 3342, 3343
 3344, 3345, 3346, 3347, 3348, 3349, 3350, 3351, 3352, 3353, 3354, 3355, 3356, 3357, 3358, 3359
 3360, 3361, 3362, 3363, 3364, 3365, 3366, 3367, 3368, 3369, 3370, 3371, 3372, 3373, 3374, 3375
 3376, 3377, 3378, 3379, 3380, 3381, 3382, 3383, 3384, 3385, 3386, 3387, 3388, 3389, 3390, 3391
 3392, 3393, 3394, 3395, 3396, 3397, 3398, 3399, 3400, 3401, 3402, 3403, 3404, 3405, 3406, 3407
 3408, 3409, 3410, 3411, 3412, 3413, 3414, 3415, 3416, 3417, 3418, 3419, 3420, 3421, 3422, 3423
 3424, 3425, 3426, 3427, 3428, 3429, 3430, 3431, 3432, 3433, 3434, 3435, 3436, 3437, 3438, 3439
** ... 7 like lines cut
*Elset, elset=Set-5, instance=Geom_2m-1
    19,   121,   356,   414,   553,   674,   683,   796,   977,  1034,  1180,  1275,  1342,  1524,  1846,  2009
  2069,  2071,  2265,  2325,  2490,  2623,  2681,  2908,  3204,  3208,  3498,  3509,  3645,  3699,  3850,  3920
  3987,  4156,  4328,  4604,  4609,  4740,  5087,  5107,  5115,  5225,  5256,  5282,  5477,  5494,  5565,  5571
  5589,  5712,  5726,  5731,  5743,  5763,  5773,  5855,  5939,  6473,  6536,  6589,  6645,  6669,  6709,  6897
  6912,  6933,  6937,  6975,  6989,  7249,  7283,  7295,  7320,  7331,  7601,  7898,  7943,  7947,  7976,  8022
  8027,  8029,  8050,  8052,  8054,  8055,  8073,  8081,  8086,  8094,  8101,  8105,  8108,  8126,  8151,  8207
  8212,  8213,  8218,  8234,  8238,  8247,  8367,  9008,  9011,  9029,  9051,  9076,  9092,  9563,  9594,  9601
  9637,  9654,  9667,  9671,  9682,  9709,  9716,  9721,  9756,  9761,  9827,  9947,  9988,  9991, 10044, 10064
 10183, 10250, 10268, 10282, 10292, 10308, 10324, 10483, 10489, 10499, 10516, 10522, 10530, 10533, 10552, 10735
 10739, 10781, 10782, 10788, 10853, 10885, 10932, 10973, 10993, 11000, 11024, 11025, 11129, 11299, 11313, 11326
 11342, 11347, 11487, 11488, 11513, 11549, 11557, 11563, 11567, 11568, 11577, 11597, 11688, 11740, 11761, 11827
 11857, 11895, 11926, 11932, 11950, 11953, 11955, 11999, 12008, 12034, 12036, 12062, 12063, 12065, 12409, 12460
 12690, 12709, 12741, 12797, 12829, 12965, 12981, 13001, 13024, 13025, 13026, 13048, 13052, 13085, 13181, 13213
 13226, 13230, 13232, 13273, 13372, 13566, 13694, 13697, 13860, 13961, 14132, 14148, 14267, 14272, 14277, 14305
 14348, 14349, 14372, 14507, 14583, 15027, 15029, 15038, 15048, 15069, 15121, 15394, 15717, 15759, 15773, 15787
 15805, 15831, 15845, 16067, 16188, 16339, 16343, 16347, 16352, 16399, 16613, 16627, 16635, 16648, 16694, 16710
 16741, 16756, 16760, 16766, 16795, 16797, 16817, 16829, 16852, 16853, 16854, 16862, 16871, 16874, 16885, 16891
 16902, 16944, 16981, 16987, 17023, 17025, 17027, 17047, 17056, 17080, 17084, 17102, 17104, 17146, 17148, 17161
 17162, 17167, 17373, 17575, 17627, 17632, 17643, 17671, 17676, 17678, 17680, 17703, 17723, 17734, 17736, 17752
 17779, 17782, 17811, 17831, 17857, 17861, 17877, 17878, 17899, 17903, 17906, 17909, 17914, 17916, 17932, 17934
** ... 25 like lines cut
*Nset, nset=Set-6, instance=Geom_2m-1
   1,   2,   3,   4,   9,  10,  11,  12,  13,  14,  15,  16,  17,  18,  19,  20
  21,  22,  23,  24,  25,  26,  27,  28,  29,  30,  31,  32,  33,  34,  35,  36
  37,  38,  39,  40,  41,  42,  43,  44,  45,  46,  47,  48,  49,  50,  51,  52
  53,  54,  55,  56,  57,  58,  59,  60,  61,  62,  63,  64,  65,  66,  67,  68
  69,  70,  71,  72,  73,  74,  75,  76,  77,  78,  79,  80,  81,  82,  83,  84
  85,  86,  87,  88,  89,  90,  91,  92,  93,  94,  95,  96,  97,  98,  99, 100
 101, 102, 103, 104, 105, 106, 107, 108, 109, 110, 111, 112, 113, 114, 115, 116
 117, 118, 119, 120, 121, 122, 123, 124, 125, 126, 127, 128, 375, 376, 377, 378
 379, 380, 381, 382, 383, 384, 385, 386, 387, 388, 389, 390, 391, 392, 393, 394
 395, 396, 397, 398, 399, 400, 401, 402, 403, 404, 405, 406, 407, 408, 409, 410
 411, 412, 413, 414, 415, 416, 417, 418, 419, 420, 421, 422, 423, 424, 425, 426
 427, 428, 429, 430, 431, 432, 433, 434, 435, 436, 437, 438, 439, 440, 441, 442
 443, 444, 445, 446, 447, 448, 449, 450, 451, 452, 453, 454, 455, 456, 457, 458
 459, 460, 461, 462, 463, 464, 465, 466, 467, 468, 469, 470, 471, 472, 473, 474
 475, 476, 477, 478, 479, 480, 481, 482, 483, 484, 485, 486, 487, 488, 489, 490
 491, 492, 493, 494, 495, 496, 497, 498, 499, 500, 501, 502, 503, 504, 505, 506
 507, 508, 509, 510, 511, 512, 513, 514, 515, 516, 517, 518, 519, 520, 521, 522
 523, 524, 525, 526, 527, 528, 529, 530, 531, 532, 533, 534, 535, 536, 537, 538
 539, 540, 541, 542, 543, 544, 545, 546, 547, 548, 549, 550, 551, 552, 553, 554
 555, 556, 557, 558, 559, 560, 561, 562, 563, 564, 565, 566, 567, 568, 569, 570
 571, 572, 573, 574, 575, 576, 577, 578, 579, 580, 581, 582, 583, 584, 585, 586
 587, 588, 589, 590, 591, 592, 593, 594, 595, 596, 597, 598
*Elset, elset=Set-6, instance=Geom_2m-1
   232,   412,   667,  1595,  2373,  2393,  2647,  3956,  4241,  4248,  4591,  4835,  5121,  5142,  5149,  5163
  5173,  5175,  5177,  5184,  5210,  5259,  5316,  5322,  5324,  5330,  5352,  5395,  5456,  5459,  5508,  5530
  5553,  5573,  5579,  5594,  5645,  5646,  5650,  5805,  5808,  5813,  5814,  5823,  5834,  5835,  5846,  5862
  5889,  5890,  5903,  5908,  5922,  5937,  5954,  5955,  5956,  5958,  5972,  5983,  5986,  5988,  5995,  5999
  6008,  6023,  6031,  6036,  6049,  6051,  6074,  6079,  6089,  6096,  6108,  6118,  6124,  6136,  6140,  6150
  6152,  6155,  6172,  6186,  6188,  6203,  6204,  6205,  6206,  6229,  6236,  6241,  6254,  6256,  6267,  6271
  6298,  6301,  6307,  6318,  6319,  6325,  6329,  6343,  6346,  6352,  6358,  6359,  6366,  6367,  6377,  6398
  6408,  6426,  6427,  6440,  6472,  6475,  6484,  6497,  6498,  6505,  6516,  6517,  6518,  6525,  6533,  6545
  6552,  6553,  6562,  6572,  6577,  6592,  6599,  6601,  6602,  6611,  6615,  6619,  6626,  6633,  6634,  6639
  6640,  6659,  6660,  6662,  6668,  6678,  6681,  6687,  6695,  6696,  6697,  6698,  6723,  6725,  6726,  6734
  6738,  6739,  6750,  6752,  6755,  6766,  6769,  6771,  6772,  6774,  6775,  6779,  6790,  6792,  6796,  6797
  6809,  6813,  6824,  6827,  6835,  6838,  6840,  6843,  6866,  6867,  6871,  6876,  6882,  6893,  6901,  6906
  6915,  6916,  6927,  6939,  6941,  6954,  6965,  6968,  6974,  6978,  6987,  7015,  7020,  7022,  7025,  7027
  7028,  7036,  7049,  7061,  7063,  7068,  7069,  7071,  7072,  7074,  7075,  7086,  7093,  7099,  7102,  7109
  7110,  7116,  7122,  7128,  7144,  7145,  7155,  7157,  7160,  7163,  7173,  7179,  7186,  7188,  7194,  7196
  7201,  7206,  7211,  7213,  7214,  7218,  7223,  7230,  7240,  7243,  7247,  7248,  7250,  7251,  7255,  7261
  7264,  7279,  7284,  7285,  7289,  7293,  7297,  7299,  7306,  7309,  7310,  7312,  7318,  7319,  7341,  7351
  7354,  7355,  7360,  7362,  7364,  7371,  7373,  7376,  7377,  7378,  7391,  7394,  7397,  7406,  7411,  7412
  7416,  7418,  7420,  7421,  7424,  7426,  7427,  7430,  7445,  7451,  7453,  7454,  7459,  7462,  7476,  7481
  7498,  7499,  7518,  7525,  7528,  7536,  7539,  7545,  7548,  7549,  7550,  7551,  7555,  7559,  7562,  7564
** ... 16 like lines cut
*End Assembly
** 
** MATERIALS
** 
*Material, name=Material-1
*Conductivity
112320.,
*Density
2690.,
*Specific Heat
840.,
** ----------------------------------------------------------------
** 
** STEP: Step-1
** 
*Step, name=Step-1, nlgeom=NO
*Heat Transfer, steady state
1., 1., 1., 1., 
** 
** BOUNDARY CONDITIONS
** 
** Name: BC-1 Type: Temperature
*Boundary
Set-5, 11, 11, 20.
** Name: BC-2 Type: Temperature
*Boundary
Set-6, 11, 11, 5.
** 
** OUTPUT REQUESTS
** 
*Restart, write, frequency=0
** 
** FIELD OUTPUT: F-Output-1
** 
*Output, field
*Node Output
NT, 
*Element Output, directions=YES
TEMP, 
*Output, history, frequency=0
*End Step
