*Heading
** Job name: 3-05_fixed_2D Model name: Model-1
** Generated by: Abaqus/CAE 2022
*Preprint, echo=NO, model=NO, history=NO, contact=NO
**
** PARTS
**
*Part, name=Part-1
*End Part
**  
**
** ASSEMBLY
**
*Assembly, name=Assembly
**  
*Instance, name=Part-1-1, part=Part-1
*End Instance
**  
*Instance, name=Part-1-2, part=Part-1
*End Instance
**  
*Instance, name=Part-1-3, part=Part-1
*Node
      1,          15.,           0.
      2,           0.,           0.
      3,           5.,          25.
      4,           5.,          30.
      5,           0.,          30.
      6,       13.125,           0.
      7,        11.25,           0.
      8,        9.375,           0.
      9,          7.5,           0.
     10,        5.625,           0.
     11,         3.75,           0.
     12,        1.875,           0.
     13,   5.76923084,   23.0769234
     14,   6.53846169,   21.1538467
     15,   7.30769253,   19.2307701
     16,   8.07692337,   17.3076916
     17,   8.84615421,   15.3846149
     18,   9.61538506,   13.4615383
     19,   10.3846149,   11.5384617
     20,   11.1538458,   9.61538506
** ... 80 like lines cut
*Element, type=DC2D3
  1,  75,  51,  29
  2,  45,  26,  43
  3,  63,  62,  45
  4,   6,   1,  24
  5,  46,   6,  24
  6,  65,  23,  22
  7,  48,   8,  47
  8,  49,   9,  48
  9,  50,  10,  49
 10,  76,  50,  49
 11,  74,  45,  62
 12,  77,  71,  60
 13,  78,  73,  66
 14,  79,  73,  78
 15,  91,  89,  80
 16,  98,  94,  82
 17,  82,  68,  81
 18,  83,  70,  82
 19, 100,  90,  85
 20,  85,  47,  65
** ... 136 like lines cut
*Nset, nset=Set-1, generate
   1,  100,    1
*Elset, elset=Set-1, generate
   1,  156,    1
** Section: Section-1
*Solid Section, elset=Set-1, material=Material-1
,
*End Instance
**  
*Nset, nset=Set-3, instance=Part-1-3
  2,  5, 29, 30, 31, 32, 33, 34, 35, 36, 37, 38, 39, 40, 41, 42
*Elset, elset=Set-3, instance=Part-1-3
 25, 27, 37, 44, 57, 60, 62, 64, 66, 68, 70, 72, 74, 78, 79
*Nset, nset=Set-4, instance=Part-1-3
  1,  3,  4,  5, 13, 14, 15, 16, 17, 18, 19, 20, 21, 22, 23, 24
 25, 26, 27, 28
*Elset, elset=Set-4, instance=Part-1-3
   4,   6,  22,  23,  24,  25,  41,  46,  51,  83,  84,  86,  87,  90,  91,  93
  97, 103
*End Assembly
** 
** MATERIALS
** 
*Material, name=Material-1
*Conductivity
112320.,
*Density
2690.,
*Specific Heat
840.,
** ----------------------------------------------------------------
** 
** STEP: Step-1
** 
*Step, name=Step-1, nlgeom=NO
*Heat Transfer, end=PERIOD
1., 10., , ,
** 
** BOUNDARY CONDITIONS
** 
** Name: BC-1 Type: Temperature
*Boundary
Set-3, 11, 11, 5.
** Name: BC-2 Type: Temperature
*Boundary
Set-4, 11, 11, 20.
** 
** OUTPUT REQUESTS
** 
*Restart, write, frequency=0
** 
** FIELD OUTPUT: F-Output-1
** 
*Output, field
*Node Output
NT, 
*Element Output, directions=YES
TEMP, 
*Output, history, frequency=0
*End Step
