*Heading
** Job name: 3-05_static_2D Model name: Model-1
** Generated by: Abaqus/CAE 2022
*Preprint, echo=NO, model=NO, history=NO, contact=NO
**
** PARTS
**
*Part, name=Design1
*End Part
**  
**
** ASSEMBLY
**
*Assembly, name=Assembly
**  
*Instance, name=Design1-1, part=Design1
*End Instance
**  
*Instance, name=Design1-2, part=Design1
*Node
      1,   51.1903992,   221.886292
      2,   56.6720009,    221.88649
      3,   42.9679985,   221.886002
      4,   42.9672279,   215.861954
      5,   42.9531746,   206.825897
      6,     42.92659,   200.801926
      7,   42.8793259,   194.778061
      8,   42.7566414,   185.742859
      9,   42.6316109,   179.720123
     10,   42.4649811,   173.698395
     11,   42.1238213,   164.668839
     12,   41.8267326,   158.652145
     13,   41.4668312,   152.638901
     14,   40.7959099,   143.627899
     15,   40.2524185,   137.628464
     16,   39.6249504,   131.637253
     17,    38.513382,   122.670021
     18,   37.6536217,    116.70771
     19,   36.7038994,   110.759056
     20,   35.6706123,   104.824341
** ... 2498 like lines cut
*Element, type=DC2D3
   1, 1488,  721,  723
   2, 1539,  891, 1488
   3, 1364,  112,  725
   4, 1218,  116, 1138
   5,  104,  711,  123
   6, 1064,  110, 1030
   7, 1346,  121, 1295
   8, 1040,  972,  889
   9,  889,    8,  593
  10,  726,    9,  126
  11,    9,  594,  126
  12, 1389,   10,  130
  13, 1361,  895, 1042
  14, 1972, 1367, 1473
  15, 1474, 1429,  143
  16, 1427, 1397,  156
  17, 1482,  151, 1394
  18, 1400, 1308,  166
  19, 2124, 1857,  176
  20, 1996,  186, 1146
** ... 4772 like lines cut
*Nset, nset=Set-1, generate
    1,  2518,     1
*Elset, elset=Set-1, generate
    1,  4792,     1
** Section: Section-1
*Solid Section, elset=Set-1, material=Material-1
,
*End Instance
**  
*Nset, nset=Set-3, instance=Design1-2
   1,   2,   3,  69,  70,  71,  72,  73,  74,  75,  76,  77,  78,  79,  80,  81
  82,  83,  84,  85,  86,  87,  88,  89,  90,  91,  92,  93,  94,  95,  96,  97
  98,  99, 100, 101, 102, 103, 104, 105, 106, 107, 583, 584, 585, 666, 667, 668
 669, 670, 671, 672, 673, 674, 675, 676, 677, 678, 679, 680, 681, 682, 683, 684
 685, 686, 687, 688, 689, 690, 691, 692, 693, 694, 695, 696, 697, 698, 699, 700
 701, 702, 703, 704, 705, 706, 707, 708, 709, 710, 711, 712, 713, 714, 715, 716
 717,
*Elset, elset=Set-3, instance=Design1-2
    5,   31,   32,   33,   35,   41,   81,  325,  327,  330,  333,  340,  360,  362,  363,  365
  366,  367,  369,  370,  380,  385,  387,  400,  430,  435, 1074, 1148, 1149, 1150, 1151, 1152
 1153, 1157, 1159, 1162, 1164, 1166, 1168, 1169, 1170, 1171, 1172, 1173, 1174, 1179, 1181, 1182
 1184, 1186, 1187, 1188, 1189, 1190, 1198, 1200, 1215, 1220, 1225, 1228, 1231, 1242, 1248, 1252
 1253, 1258, 1266, 1268, 1272, 1274, 1278, 1280, 1282, 1284, 1286, 1288, 1290, 1292, 1293, 1296
 1302, 1307, 1310, 1312, 1314, 1316, 1320, 1322, 1327, 1332, 1339, 1611, 1620, 1621, 1816, 1982
*Nset, nset=Set-4, instance=Design1-2
   3,   4,   5,   6,   7,   8,   9,  10,  11,  12,  13,  14,  15,  16,  17,  18
  19,  20,  21,  22,  23,  24,  25,  26,  27,  28,  29,  30,  31,  32,  33,  34
  35, 586, 587, 588, 589, 590, 591, 592, 593, 594, 595, 596, 597, 598, 599, 600
 601, 602, 603, 604, 605, 606, 607, 608, 609, 610, 611, 612, 613, 614, 615, 616
 617, 618, 619, 620, 621, 622, 623, 624, 625, 626, 627, 628, 629
*Elset, elset=Set-4, instance=Design1-2
    9,   11,   37,   42,   46,   49,   86,  112,  141,  156,  198,  199,  204,  210,  211,  241
  242,  243,  272,  389,  390,  391,  408,  417,  736, 1026, 1074, 1075, 1076, 1077, 1078, 1080
 1081, 1082, 1083, 1086, 1087, 1088, 1089, 1090, 1092, 1093, 1097, 1098, 1099, 1100, 1104, 1105
 1106, 1108, 1109, 1111, 1112, 1194, 1195, 1202, 1405, 1473, 1476, 1477, 1486, 1489, 1493, 1494
 1500, 1501, 1502, 1504, 1508, 1511, 1513, 1519, 1524, 1527, 1542, 2825
*End Assembly
** 
** MATERIALS
** 
*Material, name=Material-1
*Conductivity
112320.,
*Density
2690.,
*Specific Heat
840.,
** ----------------------------------------------------------------
** 
** STEP: Step-1
** 
*Step, name=Step-1, nlgeom=NO
*Heat Transfer, steady state
1., 1., 1., 1., 
** 
** BOUNDARY CONDITIONS
** 
** Name: BC-1 Type: Temperature
*Boundary
Set-3, 11, 11, 20.
** Name: BC-2 Type: Temperature
*Boundary
Set-4, 11, 11, 5.
** 
** OUTPUT REQUESTS
** 
*Restart, write, frequency=0
** 
** FIELD OUTPUT: F-Output-1
** 
*Output, field
*Node Output
NT, RFL
*Element Output, directions=YES
TEMP, 
*Output, history, frequency=0
*End Step
