*Heading
** Job name: 3-05_transitive_2D Model name: Model-1
** Generated by: Abaqus/CAE 2022
*Preprint, echo=NO, model=NO, history=NO, contact=NO
**
** PARTS
**
*Part, name=Part-1
*End Part
**  
**
** ASSEMBLY
**
*Assembly, name=Assembly
**  
*Instance, name=Part-1-1, part=Part-1
*Node
      1,          20.,           0.
      2,           0.,           0.
      3,           5.,          25.
      4,           5.,          30.
      5,           0.,          30.
      6,   17.1428566,           0.
      7,   14.2857141,           0.
      8,   11.4285717,           0.
      9,    8.5714283,           0.
     10,   5.71428585,           0.
     11,   2.85714293,           0.
     12,          6.5,         22.5
     13,           8.,          20.
     14,          9.5,         17.5
     15,          11.,          15.
     16,         12.5,         12.5
     17,          14.,          10.
     18,         15.5,          7.5
     19,          17.,           5.
     20,         18.5,          2.5
** ... 41 like lines cut
*Element, type=DC2D3
 1, 60, 59, 56
 2, 32, 31, 30
 3, 32, 22, 31
 4,  6,  1, 20
 5, 33,  6, 20
 6, 34,  7, 33
 7, 35,  8, 34
 8, 36,  9, 35
 9, 37, 10, 36
10, 50, 45, 29
11, 50, 49, 43
12, 61, 48, 47
13, 41, 14, 40
14, 42, 15, 41
15, 52, 44, 39
16, 53, 34, 38
17, 38, 33, 19
18, 33, 20, 19
19, 21,  4, 22
20, 31, 22,  5
** ... 69 like lines cut
*Nset, nset=Set-1, generate
  1,  61,   1
*Elset, elset=Set-1, generate
  1,  89,   1
** Section: Section-1
*Solid Section, elset=Set-1, material=Material-1
,
*End Instance
**  
*Nset, nset=Set-3, instance=Part-1-1
  2,  5, 23, 24, 25, 26, 27, 28, 29, 30, 31
*Elset, elset=Set-3, instance=Part-1-1
  2, 20, 21, 28, 58, 61, 62, 64, 66, 74
*Nset, nset=Set-4, instance=Part-1-1
  1,  3,  4,  5, 12, 13, 14, 15, 16, 17, 18, 19, 20, 21, 22
*Elset, elset=Set-4, instance=Part-1-1
  4, 18, 19, 20, 30, 32, 36, 43, 44, 46, 49, 52, 56
*End Assembly
*Amplitude, name=Amp-1
             1.,              6.,              2.,              7.,              3.,              8.,              4.,              9.
             5.,             10.,              6.,             11.
** 
** MATERIALS
** 
*Material, name=Material-1
*Conductivity
112320.,
*Density
2690.,
*Specific Heat
840.,
** ----------------------------------------------------------------
** 
** STEP: Step-1
** 
*Step, name=Step-1, nlgeom=NO
*Heat Transfer, end=PERIOD
1., 6., , ,
** 
** BOUNDARY CONDITIONS
** 
** Name: BC-1 Type: Temperature
*Boundary
Set-3, 11, 11, 5.
** Name: BC-2 Type: Temperature
*Boundary, amplitude=Amp-1
Set-4, 11, 11, 1.
** 
** OUTPUT REQUESTS
** 
*Restart, write, frequency=0
** 
** FIELD OUTPUT: F-Output-1
** 
*Output, field
*Node Output
NT, 
*Element Output, directions=YES
TEMP, 
*Output, history, frequency=0
*End Step
