*Heading
** Job name: 3d-28-04 Model name: Model-1
** Generated by: Abaqus/CAE 2022
*Preprint, echo=NO, model=NO, history=NO, contact=NO
**
** PARTS
**
*Part, name=Geom_10m
*End Part
**  
**
** ASSEMBLY
**
*Assembly, name=Assembly
**  
*Instance, name=Geom_10m-2, part=Geom_10m
*Node
      1,          10.,   5.79099989,           0.
      2,          10.,           0.,           0.
      3,           0.,           0.,           0.
      4,           0.,   5.79099989,           0.
      5,          10.,           0.,          10.
      6,           0.,           0.,          10.
      7,          10.,           1.,          10.
      8,           0.,           1.,          10.
      9,           0.,           1.,           9.
     10,          10.,           1.,           9.
     11,          10.,   4.82583332,           0.
     12,          10.,   3.86066675,           0.
     13,          10.,   2.89549994,           0.
     14,          10.,   1.93033338,           0.
     15,          10.,  0.965166688,           0.
     16,           9.,           0.,           0.
     17,           8.,           0.,           0.
     18,           7.,           0.,           0.
     19,           6.,           0.,           0.
     20,           5.,           0.,           0.
** ... 550 like lines cut
*Element, type=DC3D4
   1, 353, 354, 355, 356
   2, 357, 358, 359, 360
   3, 357, 355, 361, 362
   4, 357, 363, 359, 364
   5, 365, 357, 366, 367
   6, 357, 368, 365, 369
   7, 357, 362, 361, 370
   8, 357, 371, 363, 364
   9, 372, 373, 374, 375
  10, 373, 376, 377, 378
  11, 373, 378, 379, 376
  12, 373, 374, 375, 380
  13, 368, 370, 381, 369
  14, 377, 382, 380, 373
  15, 383, 377, 382, 380
  16, 373, 384, 385, 377
  17, 386, 387, 388, 389
  18, 386, 382, 390, 391
  19, 386, 392, 351, 388
  20, 386, 350, 393, 351
** ... 2216 like lines cut
*Nset, nset=Set-1, generate
   1,  570,    1
*Elset, elset=Set-1, generate
    1,  2236,     1
** Section: Section-1
*Solid Section, elset=Set-1, material=Material-1
,
*End Instance
**  
*Nset, nset=Set-6, instance=Geom_10m-2
   2,   3,   5,   6,  16,  17,  18,  19,  20,  21,  22,  23,  24,  39,  40,  41
  42,  43,  44,  45,  46,  47,  48,  49,  50,  51,  52,  53,  54,  55,  56,  57
  58,  59,  60,  61,  62,  63,  64,  65, 147, 148, 149, 150, 151, 152, 153, 154
 155, 156, 157, 158, 159, 160, 161, 162, 163, 164, 165, 166, 167, 168, 169, 170
 171, 172, 173, 174, 175, 176, 177, 178, 179, 180, 181, 182, 183, 184, 185, 186
 187, 188, 189, 190, 191, 192, 193, 194, 195, 196, 197, 198, 199, 200, 201, 202
 203, 204, 205, 206, 207, 208, 209, 210, 211, 212, 213, 214, 215, 216, 217, 218
 219, 220, 221, 222, 223, 224, 225, 226, 227
*Elset, elset=Set-6, instance=Geom_10m-2
  108,  119,  137,  194,  237,  242,  266,  283,  289,  346,  359,  371,  376,  389,  390,  391
  437,  471,  488,  505,  522,  550,  576,  604,  609,  639,  716,  723,  731,  750,  751,  784
  823,  846,  848,  865,  880,  889,  938,  939,  941,  968,  971,  995,  999, 1013, 1022, 1023
 1034, 1036, 1164, 1180, 1249, 1250, 1278, 1303, 1306, 1307, 1319, 1345, 1367, 1368, 1369, 1372
 1374, 1376, 1384, 1387, 1388, 1397, 1406, 1408, 1412, 1415, 1417, 1425, 1445, 1449, 1454, 1470
 1471, 1525, 1531, 1535, 1572, 1574, 1590, 1597, 1609, 1610, 1614, 1637, 1639, 1651, 1663, 1664
 1686, 1688, 1706, 1709, 1718, 1722, 1756, 1768, 1772, 1775, 1789, 1790, 1792, 1801, 1855, 1859
 1868, 1875, 1908, 1911, 1916, 1922, 1925, 1930, 1940, 1945, 1949, 1954, 1974, 1975, 1978, 2016
 2022, 2023, 2031, 2042, 2044, 2046, 2058, 2063, 2064, 2068, 2072, 2075, 2076, 2077, 2081, 2082
 2083, 2084, 2086, 2087, 2089, 2091, 2094, 2098, 2103, 2105, 2106, 2109, 2112, 2116, 2118, 2123
 2124, 2126, 2128, 2130, 2135, 2136, 2138, 2139, 2141, 2144, 2147, 2149, 2150, 2152, 2155, 2156
 2157, 2161, 2167, 2168, 2169, 2172, 2179, 2187, 2188, 2190, 2191, 2193, 2197, 2199, 2206, 2209
 2213, 2219, 2221, 2223, 2231, 2232, 2233, 2234
*Nset, nset=Set-7, instance=Geom_10m-2
   1,   4,   5,   6,   7,   8,   9,  10,  30,  31,  32,  33,  34,  35,  36,  37
  38,  48,  49,  50,  51,  52,  53,  54,  55,  56,  66,  67,  68,  69,  70,  71
  72,  73,  74,  75,  76,  77,  78,  79,  80,  81,  82,  83,  84,  85,  86,  87
  88,  89,  90,  91,  92,  93,  94,  95,  96,  97,  98,  99, 100, 101, 250, 251
 252, 253, 254, 255, 256, 257, 258, 259, 260, 261, 262, 263, 264, 265, 266, 267
 268, 269, 270, 271, 272, 273, 274, 275, 276, 277, 278, 279, 280, 281, 282, 283
 284, 285, 286, 287, 288, 289, 290, 291, 292, 293, 294, 295, 296, 297, 298, 299
 300, 301, 302, 303, 304, 305, 306, 307, 308, 309, 310, 311, 312, 313, 314, 315
 316, 317, 318, 319, 320, 321, 322, 323, 324, 325, 326, 327, 328, 329, 330
*Elset, elset=Set-7, instance=Geom_10m-2
  113,  118,  156,  174,  181,  305,  318,  364,  414,  424,  428,  442,  447,  448,  463,  484
  498,  499,  525,  575,  602,  642,  736,  744,  821,  824,  825,  878,  903,  912,  924,  945
  969,  970,  996, 1082, 1104, 1130, 1131, 1140, 1170, 1181, 1188, 1216, 1237, 1273, 1275, 1282
 1283, 1287, 1289, 1311, 1336, 1340, 1380, 1381, 1402, 1419, 1420, 1423, 1433, 1451, 1463, 1477
 1478, 1482, 1485, 1486, 1491, 1492, 1493, 1498, 1499, 1502, 1504, 1505, 1507, 1508, 1510, 1512
 1514, 1516, 1520, 1524, 1527, 1529, 1530, 1534, 1537, 1539, 1540, 1541, 1548, 1549, 1550, 1554
 1555, 1558, 1559, 1560, 1563, 1564, 1568, 1569, 1571, 1577, 1583, 1587, 1588, 1592, 1596, 1599
 1601, 1604, 1605, 1606, 1612, 1620, 1623, 1624, 1626, 1630, 1634, 1636, 1642, 1645, 1647, 1649
 1650, 1653, 1654, 1655, 1659, 1666, 1669, 1670, 1673, 1682, 1685, 1691, 1710, 1713, 1717, 1721
 1725, 1727, 1732, 1741, 1742, 1744, 1748, 1754, 1757, 1763, 1764, 1765, 1766, 1770, 1776, 1780
 1782, 1791, 1793, 1798, 1804, 1805, 1807, 1809, 1813, 1824, 1831, 1834, 1835, 1838, 1839, 1841
 1852, 1856, 1861, 1862, 1866, 1867, 1874, 1881, 1883, 1887, 1897, 1899, 1900, 1901, 1905, 1912
 1919, 1923, 1924, 1926, 1933, 1934, 1942, 1943, 1948, 1950, 1953, 1956, 1958, 1965, 1967, 1972
 1973, 1980, 1981, 1982, 1988, 1996, 2026, 2029, 2052, 2053, 2055, 2056, 2062, 2069, 2071, 2073
 2074, 2080, 2085, 2090, 2092, 2093, 2108, 2137, 2140, 2148, 2166, 2170, 2171, 2189, 2196, 2215
*End Assembly
** 
** MATERIALS
** 
*Material, name=Material-1
*Conductivity
112320.,
*Density
2690.,
*Specific Heat
840.,
** ----------------------------------------------------------------
** 
** STEP: Step-1
** 
*Step, name=Step-1, nlgeom=NO
*Heat Transfer, steady state
1., 1., 1., 1., 
** 
** BOUNDARY CONDITIONS
** 
** Name: BC-1 Type: Temperature
*Boundary
Set-6, 11, 11, 5.
** Name: BC-2 Type: Temperature
*Boundary
Set-7, 11, 11, 20.
** 
** OUTPUT REQUESTS
** 
*Restart, write, frequency=0
** 
** FIELD OUTPUT: F-Output-1
** 
*Output, field
*Node Output
NT, 
*Element Output, directions=YES
TEMP, 
*Output, history, frequency=0
*End Step
