*Heading
** Job name: 4-05_fixed_3D Model name: Model-1
** Generated by: Abaqus/CAE 2022
*Preprint, echo=NO, model=NO, history=NO, contact=NO
**
** PARTS
**
*Part, name=Part-1
*End Part
**  
**
** ASSEMBLY
**
*Assembly, name=Assembly
**  
*Instance, name=Part-1-1, part=Part-1
*Node
      1,           0.,           5.,           5.
      2,           1.,           5.,           5.
      3,           1.,           5.,           0.
      4,           0.,           5.,           0.
      5,           1.,           4.,           5.
      6,           1.,           4.,           0.
      7,           5.,           0.,           5.
      8,           5.,           0.,           0.
      9,           0.,           0.,           0.
     10,           0.,           0.,           5.
     11,          0.5,           5.,           5.
     12,           1.,           5.,        4.375
     13,           1.,           5.,         3.75
     14,           1.,           5.,        3.125
     15,           1.,           5.,          2.5
     16,           1.,           5.,        1.875
     17,           1.,           5.,         1.25
     18,           1.,           5.,        0.625
     19,          0.5,           5.,           0.
     20,           0.,           5.,        0.625
** ... 475 like lines cut
*Element, type=DC3D4
   1, 311, 312, 313, 314
   2, 312, 313, 314, 315
   3, 315, 316, 317, 312
   4, 315, 317, 316, 318
   5, 315, 319, 317, 318
   6, 320, 313, 321, 322
   7, 315, 317, 323, 314
   8, 315, 317, 319, 323
   9, 324, 325, 326, 327
  10, 328, 327, 329, 330
  11, 327, 329, 330, 324
  12, 324, 231, 331, 332
  13, 324, 231, 332, 329
  14, 332, 324, 333, 331
  15, 324, 326, 325, 331
  16, 312, 334, 314, 335
  17, 335, 312, 336, 314
  18, 335, 337, 338, 339
  19, 335, 337, 340, 336
  20, 341, 342, 343, 344
** ... 1907 like lines cut
*Nset, nset=Set-1, generate
   1,  495,    1
*Elset, elset=Set-1, generate
    1,  1927,     1
** Section: Section-1
*Solid Section, elset=Set-1, material=Material-1
,
*End Instance
**  
*Instance, name=Part-1-2, part=Part-1
*Node
      1,           0.,           5.,           5.
      2,           1.,           5.,           5.
      3,           1.,           5.,           0.
      4,           0.,           5.,           0.
      5,           1.,           4.,           5.
      6,           1.,           4.,           0.
      7,           5.,           0.,           5.
      8,           5.,           0.,           0.
      9,           0.,           0.,           0.
     10,           0.,           0.,           5.
     11,          0.5,           5.,           5.
     12,           1.,           5.,        4.375
     13,           1.,           5.,         3.75
     14,           1.,           5.,        3.125
     15,           1.,           5.,          2.5
     16,           1.,           5.,        1.875
     17,           1.,           5.,         1.25
     18,           1.,           5.,        0.625
     19,          0.5,           5.,           0.
     20,           0.,           5.,        0.625
** ... 475 like lines cut
*Element, type=DC3D4
   1, 311, 312, 313, 314
   2, 312, 313, 314, 315
   3, 315, 316, 317, 312
   4, 315, 317, 316, 318
   5, 315, 319, 317, 318
   6, 320, 313, 321, 322
   7, 315, 317, 323, 314
   8, 315, 317, 319, 323
   9, 324, 325, 326, 327
  10, 328, 327, 329, 330
  11, 327, 329, 330, 324
  12, 324, 231, 331, 332
  13, 324, 231, 332, 329
  14, 332, 324, 333, 331
  15, 324, 326, 325, 331
  16, 312, 334, 314, 335
  17, 335, 312, 336, 314
  18, 335, 337, 338, 339
  19, 335, 337, 340, 336
  20, 341, 342, 343, 344
** ... 1907 like lines cut
*Nset, nset=Set-1, generate
   1,  495,    1
*Elset, elset=Set-1, generate
    1,  1927,     1
** Section: Section-1
*Solid Section, elset=Set-1, material=Material-1
,
*End Instance
**  
*Nset, nset=Set-4, instance=Part-1-2
   1,   4,   9,  10,  20,  21,  22,  23,  24,  25,  26,  66,  67,  68,  69,  70
  71,  72,  73,  74,  75,  76,  77,  78,  79,  80,  81,  82,  83,  84,  85,  86
 188, 189, 190, 191, 192, 193, 194, 195, 196, 197, 198, 199, 200, 201, 202, 203
 204, 205, 206, 207, 208, 209, 210, 211, 212, 213, 214, 215, 216, 217, 218, 219
 220, 221, 222, 223, 224, 225, 226, 227, 228, 229, 230, 231, 232, 233, 234, 235
 236,
*Elset, elset=Set-4, instance=Part-1-2
  107,  171,  217,  284,  320,  385,  387,  390,  410,  542,  556,  585,  642,  727,  787,  827
  868,  901,  915,  949,  950,  965, 1030, 1036, 1057, 1063, 1105, 1184, 1189, 1190, 1193, 1197
 1207, 1237, 1239, 1245, 1291, 1325, 1451, 1455, 1459, 1467, 1470, 1472, 1476, 1477, 1481, 1482
 1484, 1485, 1489, 1490, 1496, 1499, 1500, 1503, 1514, 1521, 1522, 1524, 1525, 1527, 1530, 1535
 1540, 1542, 1545, 1550, 1551, 1552, 1553, 1557, 1559, 1560, 1563, 1564, 1565, 1568, 1571, 1578
 1583, 1594, 1595, 1597, 1599, 1600, 1604, 1613, 1616, 1620, 1621, 1622, 1626, 1627, 1629, 1632
 1637, 1638, 1648, 1651, 1655, 1658, 1664, 1668, 1669, 1673, 1677, 1689, 1706, 1711, 1712, 1717
 1719, 1731, 1734, 1736, 1739, 1754, 1763, 1799, 1812, 1854, 1879, 1884, 1891, 1905, 1910, 1911
*Nset, nset=Set-5, instance=Part-1-2
   1,   2,   3,   4,   5,   6,   7,   8,  11,  12,  13,  14,  15,  16,  17,  18
  19,  20,  21,  22,  23,  24,  25,  26,  27,  28,  29,  30,  31,  32,  33,  34
  35,  36,  37,  38,  39,  40,  41,  42,  43,  44,  45,  46,  47,  48,  49,  50
  51,  52,  53,  54,  55,  56,  57,  58,  94,  95,  96,  97,  98,  99, 100, 101
 102, 103, 104, 105, 106, 107, 108, 109, 110, 111, 112, 113, 114, 115, 116, 117
 118, 119, 120, 121, 122, 123, 124, 125, 126, 127, 128, 129, 130, 131, 132, 133
 134, 135, 136, 137, 138, 139, 140, 141, 142, 143, 144, 145, 146, 147, 148, 149
 150, 151, 152, 153, 154, 155, 156, 157, 158, 159, 160, 161, 162, 163
*Elset, elset=Set-5, instance=Part-1-2
   22,  113,  115,  127,  135,  199,  214,  261,  266,  277,  301,  306,  308,  356,  412,  415
  419,  439,  502,  559,  592,  673,  711,  714,  737,  749,  769,  781,  790,  798,  805,  819
  825,  828,  837,  856,  865,  867,  870,  871,  874,  888,  889,  948,  951,  957, 1000, 1007
 1073, 1125, 1145, 1152, 1153, 1154, 1157, 1162, 1168, 1169, 1172, 1173, 1180, 1181, 1185, 1191
 1210, 1213, 1219, 1226, 1232, 1233, 1235, 1238, 1273, 1277, 1279, 1285, 1290, 1294, 1311, 1330
 1339, 1343, 1345, 1358, 1367, 1399, 1401, 1402, 1418, 1420, 1424, 1426, 1428, 1433, 1436, 1442
 1446, 1457, 1461, 1468, 1473, 1479, 1497, 1520, 1534, 1544, 1548, 1570, 1580, 1581, 1582, 1584
 1585, 1586, 1587, 1588, 1589, 1592, 1596, 1610, 1611, 1617, 1625, 1644, 1649, 1653, 1656, 1659
 1661, 1665, 1666, 1667, 1670, 1687, 1688, 1690, 1691, 1698, 1703, 1704, 1709, 1710, 1716, 1729
 1735, 1746, 1747, 1748, 1761, 1765, 1766, 1767, 1772, 1773, 1781, 1782, 1783, 1786, 1787, 1788
 1789, 1790, 1791, 1792, 1801, 1804, 1806, 1810, 1811, 1816, 1818, 1820, 1821, 1823, 1825, 1827
 1830, 1831, 1832, 1839, 1846, 1851, 1852, 1853, 1856, 1859, 1860, 1867, 1868, 1870, 1872, 1880
 1881, 1886, 1887, 1890, 1895, 1897, 1899, 1900, 1907, 1909, 1919, 1920, 1922, 1923, 1925, 1927
*End Assembly
** 
** MATERIALS
** 
*Material, name=Material-1
*Conductivity
112320.,
*Density
2690.,
*Specific Heat
840.,
** ----------------------------------------------------------------
** 
** STEP: Step-1
** 
*Step, name=Step-1, nlgeom=NO
*Heat Transfer, end=PERIOD
1., 10., , ,
** 
** BOUNDARY CONDITIONS
** 
** Name: BC-1 Type: Temperature
*Boundary
Set-4, 11, 11, 5.
** Name: BC-2 Type: Temperature
*Boundary
Set-5, 11, 11, 20.
** 
** OUTPUT REQUESTS
** 
*Restart, write, frequency=0
** 
** FIELD OUTPUT: F-Output-1
** 
*Output, field
*Node Output
NT, 
*Element Output, directions=YES
TEMP, 
*Output, history, frequency=0
*End Step
