*Heading
** Job name: 4-05_fixed_3D Model name: Model-1
** Generated by: Abaqus/CAE 2022
*Preprint, echo=NO, model=NO, history=NO, contact=NO
**
** PARTS
**
*Part, name=Part-1
*End Part
**  
**
** ASSEMBLY
**
*Assembly, name=Assembly
**  
*Instance, name=Part-1-1, part=Part-1
*Node
      1,           0.,           5.,           5.
      2,           1.,           5.,           5.
      3,           1.,           5.,           0.
      4,           0.,           5.,           0.
      5,           1.,           4.,           5.
      6,           1.,           4.,           0.
      7,           5.,           0.,           5.
      8,           5.,           0.,           0.
      9,           0.,           0.,           0.
     10,           0.,           0.,           5.
     11,  0.333333343,           5.,           5.
     12,  0.666666687,           5.,           5.
     13,           1.,           5.,   4.70588255
     14,           1.,           5.,   4.41176462
     15,           1.,           5.,   4.11764717
     16,           1.,           5.,   3.82352948
     17,           1.,           5.,   3.52941179
     18,           1.,           5.,    3.2352941
     19,           1.,           5.,   2.94117641
     20,           1.,           5.,   2.64705873
** ... 3285 like lines cut
*Element, type=DC3D4
    1, 1344, 1345, 1346, 1347
    2, 1344, 1348, 1349, 1350
    3, 1344, 1351, 1352, 1346
    4, 1344, 1353, 1348, 1350
    5, 1344, 1354, 1351, 1348
    6, 1344, 1353, 1355, 1352
    7, 1356, 1357, 1352, 1354
    8, 1354, 1358, 1356, 1359
    9, 1354, 1353, 1360, 1356
   10, 1354, 1361, 1358, 1362
   11, 1352, 1353, 1355, 1360
   12, 1354, 1361, 1348, 1353
   13, 1354, 1351, 1363, 1352
   14, 1344, 1351, 1354, 1352
   15, 1354, 1348, 1362, 1351
   16, 1364, 1365, 1366, 1367
   17, 1368, 1369, 1370, 1371
   18, 1365, 1372, 1367, 1364
   19, 1372, 1373, 1374, 1375
   20, 1372, 1376, 1364, 1377
** ... 15641 like lines cut
*Nset, nset=Set-1, generate
    1,  3305,     1
*Elset, elset=Set-1, generate
     1,  15661,      1
** Section: Section-1
*Solid Section, elset=Set-1, material=Material-1
,
*End Instance
**  
*Instance, name=Part-1-2, part=Part-1
*Node
      1,           0.,           5.,           5.
      2,           1.,           5.,           5.
      3,           1.,           5.,           0.
      4,           0.,           5.,           0.
      5,           1.,           4.,           5.
      6,           1.,           4.,           0.
      7,           5.,           0.,           5.
      8,           5.,           0.,           0.
      9,           0.,           0.,           0.
     10,           0.,           0.,           5.
     11,  0.333333343,           5.,           5.
     12,  0.666666687,           5.,           5.
     13,           1.,           5.,   4.70588255
     14,           1.,           5.,   4.41176462
     15,           1.,           5.,   4.11764717
     16,           1.,           5.,   3.82352948
     17,           1.,           5.,   3.52941179
     18,           1.,           5.,    3.2352941
     19,           1.,           5.,   2.94117641
     20,           1.,           5.,   2.64705873
** ... 3285 like lines cut
*Element, type=DC3D4
    1, 1344, 1345, 1346, 1347
    2, 1344, 1348, 1349, 1350
    3, 1344, 1351, 1352, 1346
    4, 1344, 1353, 1348, 1350
    5, 1344, 1354, 1351, 1348
    6, 1344, 1353, 1355, 1352
    7, 1356, 1357, 1352, 1354
    8, 1354, 1358, 1356, 1359
    9, 1354, 1353, 1360, 1356
   10, 1354, 1361, 1358, 1362
   11, 1352, 1353, 1355, 1360
   12, 1354, 1361, 1348, 1353
   13, 1354, 1351, 1363, 1352
   14, 1344, 1351, 1354, 1352
   15, 1354, 1348, 1362, 1351
   16, 1364, 1365, 1366, 1367
   17, 1368, 1369, 1370, 1371
   18, 1365, 1372, 1367, 1364
   19, 1372, 1373, 1374, 1375
   20, 1372, 1376, 1364, 1377
** ... 15641 like lines cut
*Nset, nset=Set-1, generate
    1,  3305,     1
*Elset, elset=Set-1, generate
     1,  15661,      1
** Section: Section-1
*Solid Section, elset=Set-1, material=Material-1
,
*End Instance
**  
*Nset, nset=Set-4, instance=Part-1-2
   1,   4,   9,  10,  31,  32,  33,  34,  35,  36,  37,  38,  39,  40,  41,  42
  43,  44,  45,  46, 135, 136, 137, 138, 139, 140, 141, 142, 143, 144, 145, 146
 147, 148, 149, 150, 151, 152, 153, 154, 155, 156, 157, 158, 159, 160, 161, 162
 163, 164, 165, 166, 167, 168, 169, 170, 171, 172, 173, 174, 175, 176, 177, 178
 179, 180, 181, 182, 691, 692, 693, 694, 695, 696, 697, 698, 699, 700, 701, 702
 703, 704, 705, 706, 707, 708, 709, 710, 711, 712, 713, 714, 715, 716, 717, 718
 719, 720, 721, 722, 723, 724, 725, 726, 727, 728, 729, 730, 731, 732, 733, 734
 735, 736, 737, 738, 739, 740, 741, 742, 743, 744, 745, 746, 747, 748, 749, 750
 751, 752, 753, 754, 755, 756, 757, 758, 759, 760, 761, 762, 763, 764, 765, 766
 767, 768, 769, 770, 771, 772, 773, 774, 775, 776, 777, 778, 779, 780, 781, 782
 783, 784, 785, 786, 787, 788, 789, 790, 791, 792, 793, 794, 795, 796, 797, 798
 799, 800, 801, 802, 803, 804, 805, 806, 807, 808, 809, 810, 811, 812, 813, 814
 815, 816, 817, 818, 819, 820, 821, 822, 823, 824, 825, 826, 827, 828, 829, 830
 831, 832, 833, 834, 835, 836, 837, 838, 839, 840, 841, 842, 843, 844, 845, 846
 847, 848, 849, 850, 851, 852, 853, 854, 855, 856, 857, 858, 859, 860, 861, 862
 863, 864, 865, 866, 867, 868, 869, 870, 871, 872, 873, 874, 875, 876, 877, 878
 879, 880, 881, 882, 883, 884, 885, 886, 887, 888, 889, 890, 891, 892, 893, 894
 895, 896, 897, 898, 899, 900, 901, 902, 903, 904, 905, 906, 907, 908, 909, 910
 911, 912, 913, 914, 915, 916, 917, 918, 919, 920, 921, 922, 923, 924, 925, 926
 927, 928, 929, 930, 931, 932, 933, 934, 935, 936, 937, 938, 939, 940, 941, 942
 943, 944, 945, 946
*Elset, elset=Set-4, instance=Part-1-2
   722,   828,  1091,  1302,  1624,  1667,  1681,  1714,  1766,  1769,  1780,  1804,  1814,  1833,  1876,  1901
  1955,  1968,  1986,  1997,  2003,  2012,  2052,  2100,  2140,  2145,  2153,  2161,  2175,  2178,  2187,  2205
  2266,  2298,  2324,  2334,  2335,  2337,  2341,  2356,  2375,  2408,  2409,  2439,  2449,  2453,  2461,  2468
  2489,  2509,  2525,  2549,  2552,  2565,  2590,  2592,  2849,  2972,  3030,  3049,  3062,  3111,  3116,  3140
  3293,  3325,  3493,  3577,  3608,  3675,  3684,  3689,  3785,  3867,  3975,  4091,  4192,  4207,  4367,  4389
  4396,  4424,  4523,  4543,  4547,  4550,  4580,  4603,  4607,  4620,  4625,  4646,  4649,  4658,  4674,  4676
  4693,  4703,  4709,  4722,  4730,  4731,  4965,  4990,  5006,  5058,  5081,  5303,  5310,  5311,  5319,  5322
  5330,  5334,  5344,  5347,  5351,  5356,  5359,  5365,  5368,  5379,  5380,  5390,  5392,  5401,  5402,  5407
  5415,  5423,  5429,  5430,  5432,  5437,  5442,  5453,  5459,  5473,  5474,  5494,  5502,  5506,  5521,  5526
  5527,  5531,  5533,  5539,  5542,  5545,  5546,  5555,  5557,  5561,  5568,  5576,  5578,  5583,  5591,  5606
  5610,  5615,  5618,  5624,  5633,  5639,  5641,  5645,  5650,  5653,  5659,  5660,  5668,  5671,  5672,  5674
  5675,  5677,  5684,  5691,  5693,  5700,  5707,  5723,  5748,  5756,  5762,  5769,  5773,  5783,  5801,  5811
  5818,  5820,  5824,  5834,  5837,  5842,  5843,  5847,  5850,  5851,  5852,  5856,  5857,  5863,  5866,  5867
  5871,  5877,  5880,  5881,  5888,  5890,  5893,  5895,  5903,  5915,  5921,  5927,  5935,  5940,  5943,  5944
  5945,  5956,  5959,  5967,  5973,  5979,  5983,  5985,  5988,  5994,  5999,  6001,  6008,  6020,  6027,  6028
  6036,  6037,  6043,  6044,  6045,  6051,  6054,  6062,  6068,  6079,  6083,  6085,  6097,  6099,  6101,  6111
  6114,  6116,  6117,  6119,  6126,  6134,  6147,  6157,  6161,  6162,  6167,  6168,  6170,  6171,  6176,  6199
  6202,  6205,  6208,  6215,  6223,  6225,  6229,  6230,  6235,  6236,  6244,  6248,  6257,  6269,  6273,  6280
  6286,  6287,  6290,  6291,  6301,  6304,  6315,  6320,  6340,  6358,  6380,  6393,  6396,  6397,  6409,  6411
  6416,  6419,  6424,  6434,  6442,  6449,  6451,  6456,  6477,  6481,  6484,  6485,  6491,  6494,  6496,  6503
** ... 17 like lines cut
*Nset, nset=Set-5, instance=Part-1-2
   1,   2,   3,   4,   5,   6,   7,   8,  11,  12,  13,  14,  15,  16,  17,  18
  19,  20,  21,  22,  23,  24,  25,  26,  27,  28,  29,  30,  31,  32,  33,  34
  35,  36,  37,  38,  39,  40,  41,  42,  43,  44,  45,  46,  47,  48,  49,  50
  51,  52,  53,  54,  55,  56,  57,  58,  59,  60,  61,  62,  63,  64,  65,  66
  67,  68,  69,  70,  71,  72,  73,  74,  75,  76,  77,  78,  79,  80,  81,  82
  83,  84,  85,  86,  87,  88,  89,  90,  91,  92,  93,  94,  95,  96,  97,  98
  99, 100, 101, 102, 103, 104, 105, 106, 107, 108, 109, 110, 111, 112, 113, 114
 115, 116, 117, 118, 199, 200, 201, 202, 203, 204, 205, 206, 207, 208, 209, 210
 211, 212, 213, 214, 215, 216, 217, 218, 219, 220, 221, 222, 223, 224, 225, 226
 227, 228, 229, 230, 231, 232, 233, 234, 235, 236, 237, 238, 239, 240, 241, 242
 243, 244, 245, 246, 247, 248, 249, 250, 251, 252, 253, 254, 255, 256, 257, 258
 259, 260, 261, 262, 263, 264, 265, 266, 267, 268, 269, 270, 271, 272, 273, 274
 275, 276, 277, 278, 279, 280, 281, 282, 283, 284, 285, 286, 287, 288, 289, 290
 291, 292, 293, 294, 295, 296, 297, 298, 299, 300, 301, 302, 303, 304, 305, 306
 307, 308, 309, 310, 311, 312, 313, 314, 315, 316, 317, 318, 319, 320, 321, 322
 323, 324, 325, 326, 327, 328, 329, 330, 331, 332, 333, 334, 335, 336, 337, 338
 339, 340, 341, 342, 343, 344, 345, 346, 347, 348, 349, 350, 351, 352, 353, 354
 355, 356, 357, 358, 359, 360, 361, 362, 363, 364, 365, 366, 367, 368, 369, 370
 371, 372, 373, 374, 375, 376, 377, 378, 379, 380, 381, 382, 383, 384, 385, 386
 387, 388, 389, 390, 391, 392, 393, 394, 395, 396, 397, 398, 399, 400, 401, 402
** ... 10 like lines cut
*Elset, elset=Set-5, instance=Part-1-2
    51,   217,   364,   542,   699,  1025,  1037,  1045,  1189,  1252,  1306,  1327,  1371,  1387,  1452,  1498
  1555,  1625,  1643,  1651,  1653,  1656,  1665,  1675,  1679,  1690,  1691,  1713,  1738,  1745,  1756,  1761
  1762,  1768,  1772,  1790,  1791,  1796,  1802,  1813,  1856,  1858,  1864,  1870,  1894,  1896,  1918,  1920
  1921,  1929,  1931,  1933,  1934,  1935,  1947,  1949,  1950,  1971,  1974,  1980,  1981,  1996,  2000,  2002
  2016,  2019,  2023,  2027,  2035,  2038,  2050,  2051,  2058,  2063,  2078,  2103,  2108,  2113,  2115,  2118
  2123,  2126,  2129,  2157,  2162,  2171,  2174,  2188,  2192,  2199,  2201,  2214,  2217,  2229,  2235,  2237
  2246,  2247,  2248,  2257,  2262,  2264,  2277,  2282,  2290,  2292,  2295,  2301,  2306,  2315,  2318,  2336
  2338,  2342,  2346,  2351,  2352,  2355,  2362,  2367,  2370,  2379,  2385,  2388,  2394,  2396,  2397,  2401
  2404,  2410,  2416,  2420,  2421,  2425,  2432,  2437,  2440,  2457,  2459,  2462,  2463,  2473,  2476,  2481
  2482,  2485,  2486,  2495,  2498,  2499,  2500,  2517,  2518,  2519,  2522,  2526,  2536,  2544,  2546,  2548
  2554,  2557,  2572,  2579,  2584,  2589,  2596,  2605,  2606,  2619,  2633,  2637,  2639,  2640,  2641,  2649
  2650,  2653,  2654,  2663,  2665,  2670,  2673,  2675,  2676,  2678,  2690,  2692,  2694,  2701,  2717,  2724
  2739,  2750,  2751,  2773,  2776,  2781,  2784,  2786,  2795,  2798,  2799,  2801,  2810,  2821,  2830,  2838
  2841,  2848,  2856,  2862,  2865,  2866,  2876,  2880,  2887,  2888,  2891,  2896,  2897,  2931,  2933,  2934
  2936,  2950,  2955,  2957,  2958,  2962,  2970,  2976,  2980,  2985,  2987,  2988,  2989,  2991,  2993,  2995
  3012,  3020,  3022,  3024,  3027,  3029,  3032,  3036,  3040,  3045,  3056,  3057,  3059,  3064,  3067,  3080
  3081,  3083,  3086,  3090,  3095,  3104,  3106,  3118,  3122,  3128,  3131,  3135,  3136,  3143,  3145,  3153
  3167,  3169,  3171,  3175,  3179,  3183,  3198,  3207,  3212,  3213,  3218,  3219,  3223,  3228,  3232,  3234
  3245,  3246,  3249,  3270,  3271,  3272,  3276,  3291,  3295,  3308,  3310,  3313,  3336,  3343,  3350,  3368
  3369,  3388,  3389,  3390,  3391,  3397,  3403,  3404,  3407,  3432,  3437,  3442,  3454,  3457,  3466,  3467
** ... 34 like lines cut
*End Assembly
** 
** MATERIALS
** 
*Material, name=Material-1
*Conductivity
112320.,
*Density
2690.,
*Specific Heat
840.,
** ----------------------------------------------------------------
** 
** STEP: Step-1
** 
*Step, name=Step-1, nlgeom=NO
*Heat Transfer, end=PERIOD
1., 10., , ,
** 
** BOUNDARY CONDITIONS
** 
** Name: BC-1 Type: Temperature
*Boundary
Set-4, 11, 11, 5.
** Name: BC-2 Type: Temperature
*Boundary
Set-5, 11, 11, 20.
** 
** OUTPUT REQUESTS
** 
*Restart, write, frequency=0
** 
** FIELD OUTPUT: F-Output-1
** 
*Output, field
*Node Output
NT, 
*Element Output, directions=YES
TEMP, 
*Output, history, frequency=0
*End Step
