*Heading
** Job name: 4-05_2D Model name: Model-1
** Generated by: Abaqus/CAE 2022
*Preprint, echo=NO, model=NO, history=NO, contact=NO
**
** PARTS
**
*Part, name=Part-1
*End Part
**  
**
** ASSEMBLY
**
*Assembly, name=Assembly
**  
*Instance, name=Part-1-1, part=Part-1
*End Instance
**  
*Instance, name=Part-1-2, part=Part-1
*Node
      1,          20.,           0.
      2,           0.,           0.
      3,           5.,          25.
      4,           5.,          30.
      5,           0.,          30.
      6,          19.,           0.
      7,          18.,           0.
      8,          17.,           0.
      9,          16.,           0.
     10,          15.,           0.
     11,          14.,           0.
     12,          13.,           0.
     13,          12.,           0.
     14,          11.,           0.
     15,          10.,           0.
     16,           9.,           0.
     17,           8.,           0.
     18,           7.,           0.
     19,           6.,           0.
     20,           5.,           0.
** ... 413 like lines cut
*Element, type=DC2D3
  1, 163, 113,  24
  2, 132,  84, 131
  3,  91,  90,  56
  4,   6,   1,  52
  5, 158,  51,  50
  6,  93,   7,  92
  7,  94,   8,  93
  8,  95,   9,  94
  9,  96,  10,  95
 10,  97,  11,  96
 11,  98,  12,  97
 12,  99,  13,  98
 13, 100,  14,  99
 14, 101,  15, 100
 15, 102,  16, 101
 16, 103,  17, 102
 17, 103,  18,  17
 18, 104,  19,  18
 19, 167, 104, 103
 20, 106,  20, 105
** ... 755 like lines cut
*Nset, nset=Set-1, generate
   1,  433,    1
*Elset, elset=Set-1, generate
   1,  775,    1
** Section: Section-1
*Solid Section, elset=Set-1, material=Material-1
,
*End Instance
**  
*Nset, nset=Set-3, instance=Part-1-2
  2,  5, 61, 62, 63, 64, 65, 66, 67, 68, 69, 70, 71, 72, 73, 74
 75, 76, 77, 78, 79, 80, 81, 82, 83, 84, 85, 86, 87, 88, 89
*Elset, elset=Set-3, instance=Part-1-2
  55,  59,  65,  87, 134, 137, 139, 141, 143, 145, 147, 149, 151, 153, 155, 157
 159, 161, 163, 165, 167, 169, 171, 173, 175, 177, 179, 236, 271, 272
*Nset, nset=Set-4, instance=Part-1-2
  1,  3,  4,  5, 25, 26, 27, 28, 29, 30, 31, 32, 33, 34, 35, 36
 37, 38, 39, 40, 41, 42, 43, 44, 45, 46, 47, 48, 49, 50, 51, 52
 53, 54, 55, 56, 57, 58, 59, 60
*Elset, elset=Set-4, instance=Part-1-2
   4,   5,  46,  50,  51,  52,  55,  88,  89,  90,  94, 104, 126, 130, 133, 180
 183, 184, 185, 186, 187, 188, 189, 190, 191, 192, 195, 198, 199, 204, 209, 211
 213, 217, 219, 221, 223, 228, 240
*End Assembly
*Amplitude, name=Amp-1
             1.,              6.,              2.,              7.,              3.,              8.,              4.,              9.
             5.,             10.,              6.,             11.
** 
** MATERIALS
** 
*Material, name=Material-1
*Conductivity
112320.,
*Density
2690.,
*Specific Heat
840.,
** ----------------------------------------------------------------
** 
** STEP: Step-1
** 
*Step, name=Step-1, nlgeom=NO
*Heat Transfer, end=PERIOD
1., 10., , ,
** 
** BOUNDARY CONDITIONS
** 
** Name: BC-1 Type: Temperature
*Boundary
Set-3, 11, 11, 5.
** Name: BC-2 Type: Temperature
*Boundary, amplitude=Amp-1
Set-4, 11, 11, 1.
** 
** OUTPUT REQUESTS
** 
*Restart, write, frequency=0
** 
** FIELD OUTPUT: F-Output-1
** 
*Output, field
*Node Output
NT, 
*Element Output, directions=YES
TEMP, 
*Output, history, frequency=0
*End Step
