*Heading
** Job name: 8_05 Model name: Model-1
** Generated by: Abaqus/CAE 2022
*Preprint, echo=NO, model=NO, history=NO, contact=NO
**
** PARTS
**
*Part, name=Part-1
*End Part
**  
**
** ASSEMBLY
**
*Assembly, name=Assembly
**  
*Instance, name=Part-1-1, part=Part-1
*Node
      1,           0.,           1.,          0.5
      2,  0.100000001,           1.,          0.5
      3,  0.100000001,           1.,           0.
      4,           0.,           1.,           0.
      5,  0.100000001,  0.904960811,          0.5
      6,  0.100000001,  0.904960811,           0.
      7,          0.5,           0.,          0.5
      8,          0.5,           0.,           0.
      9,           0.,           0.,           0.
     10,           0.,           0.,          0.5
     11, 0.0500000007,           1.,          0.5
     12,  0.100000001,           1.,  0.449999988
     13,  0.100000001,           1.,  0.400000006
     14,  0.100000001,           1.,  0.349999994
     15,  0.100000001,           1.,  0.300000012
     16,  0.100000001,           1.,         0.25
     17,  0.100000001,           1.,  0.200000003
     18,  0.100000001,           1.,  0.150000006
     19,  0.100000001,           1.,  0.100000001
     20,  0.100000001,           1., 0.0500000007
** ... 1711 like lines cut
*Element, type=DC3D4
   1,  800,  801,  802,  803
   2,  800,  804,  802,  805
   3,  800,  802,  801,  806
   4,  807,  808,  809,  810
   5,  807,  811,  812,  808
   6,  807,  808,  810,  813
   7,  814,  815,  816,  817
   8,  818,  803,  819,  820
   9,  820,  821,  819,  818
  10,  820,  822,  803,  819
  11,  820,  803,  822,  823
  12,  820,  821,  824,  825
  13,  826,  827,  828,  829
  14,  800,  822,  826,  819
  15,  800,  804,  805,  830
  16,  800,  831,  804,  830
  17,  826,  832,  833,  834
  18,  826,  830,  834,  831
  19,  826,  834,  833,  835
  20,  836,  837,  838,  839
** ... 7819 like lines cut
*Nset, nset=Set-1, generate
    1,  1731,     1
*Elset, elset=Set-1, generate
    1,  7839,     1
** Section: Section-1
*Solid Section, elset=Set-1, material=Material-1
,
*End Instance
**  
*Nset, nset=Set-4, instance=Part-1-1
   1,   2,   3,   4,   5,   6,   7,   8,  11,  12,  13,  14,  15,  16,  17,  18
  19,  20,  21,  22,  23,  24,  25,  26,  27,  28,  29,  30,  31,  32,  33,  34
  35,  36,  37,  38,  39,  40,  41,  42,  43,  44,  45,  46,  47,  48,  49,  50
  51,  52,  53,  54,  55,  56,  57,  58,  59,  60,  61,  62,  63,  64,  65,  66
  67,  68,  69,  70,  71,  72,  73,  74,  75,  76,  77,  78,  79,  80,  81,  82
  83,  84,  85,  86,  87,  88, 154, 155, 156, 157, 158, 159, 160, 161, 162, 163
 164, 165, 166, 167, 168, 169, 170, 171, 172, 173, 174, 175, 176, 177, 178, 179
 180, 181, 182, 183, 184, 185, 186, 187, 188, 189, 190, 191, 192, 193, 194, 195
 196, 197, 198, 199, 200, 201, 202, 203, 204, 205, 206, 207, 208, 209, 210, 211
 212, 213, 214, 215, 216, 217, 218, 219, 220, 221, 222, 223, 224, 225, 226, 227
 228, 229, 230, 231, 232, 233, 234, 235, 236, 237, 238, 239, 240, 241, 242, 243
 244, 245, 246, 247, 248, 249, 250, 251, 252, 253, 254, 255, 256, 257, 258, 259
 260, 261, 262, 263, 264, 265, 266, 267, 268, 269, 270, 271, 272, 273, 274, 275
 276, 277, 278, 279, 280, 281, 282, 283, 284, 285, 286, 287, 288, 289, 290, 291
 292, 293, 294, 295, 296, 297, 298, 299, 300, 301, 302, 303, 304, 305, 306, 307
 308, 309, 310, 311, 312, 313, 314, 315, 316, 317, 318, 319, 320, 321, 322, 323
 324, 325, 326, 327, 328, 329, 330, 331, 332, 333, 334, 335, 336, 337, 338, 339
 340, 341, 342
*Elset, elset=Set-4, instance=Part-1-1
   51,  238,  244,  358,  457,  602,  627,  628,  869, 1439, 1593, 1596, 1615, 1622, 1626, 1629
 1633, 1635, 1641, 1651, 1670, 1696, 1706, 1707, 1708, 1718, 1737, 1765, 1770, 1772, 1790, 1791
 1795, 1797, 1802, 1814, 1816, 1819, 1825, 1834, 1844, 1848, 1851, 1855, 1864, 1870, 1871, 1882
 1883, 1887, 1890, 1896, 1901, 1912, 1916, 1919, 1965, 1968, 1990, 1996, 1998, 2004, 2010, 2013
 2023, 2026, 2027, 2033, 2034, 2036, 2045, 2046, 2049, 2050, 2051, 2064, 2072, 2073, 2075, 2077
 2083, 2084, 2088, 2095, 2102, 2111, 2114, 2122, 2136, 2142, 2153, 2166, 2171, 2176, 2179, 2186
 2199, 2201, 2202, 2205, 2210, 2213, 2214, 2215, 2228, 2231, 2239, 2244, 2256, 2261, 2267, 2279
 2288, 2289, 2295, 2298, 2302, 2305, 2311, 2323, 2328, 2329, 2330, 2337, 2341, 2353, 2356, 2363
 2365, 2376, 2384, 2388, 2396, 2399, 2401, 2407, 2408, 2409, 2426, 2437, 2440, 2442, 2447, 2457
 2464, 2470, 2480, 2487, 2494, 2496, 2499, 2500, 2504, 2505, 2506, 2522, 2524, 2527, 2529, 2539
 2541, 2559, 2562, 2564, 2567, 2569, 2570, 2572, 2589, 2592, 2596, 2607, 2613, 2614, 2617, 2624
 2630, 2635, 2643, 2648, 2649, 2659, 2663, 2670, 2672, 2673, 2676, 2685, 2689, 2690, 2691, 2698
 2700, 2718, 2723, 2729, 2731, 2737, 2741, 2744, 2746, 2758, 2767, 2770, 2771, 2774, 2779, 2788
 2789, 2794, 2795, 2797, 2806, 2807, 2808, 2815, 2819, 2824, 2834, 2836, 2844, 2845, 2853, 2870
 2872, 2873, 2875, 2877, 2883, 2886, 2887, 2890, 2898, 2902, 2903, 2906, 2915, 2922, 2935, 2946
 2953, 2962, 2964, 2965, 2967, 2969, 2970, 2974, 2985, 2996, 3003, 3011, 3012, 3013, 3022, 3035
 3037, 3043, 3053, 3058, 3064, 3067, 3068, 3074, 3075, 3076, 3084, 3089, 3094, 3101, 3103, 3112
 3113, 3116, 3118, 3126, 3127, 3128, 3134, 3136, 3138, 3151, 3156, 3162, 3167, 3168, 3170, 3173
 3179, 3183, 3191, 3193, 3197, 3203, 3208, 3261, 3265, 3270, 3271, 3273, 3274, 3280, 3282, 3283
 3287, 3288, 3291, 3303, 3311, 3325, 3326, 3338, 3343, 3374, 3396, 3398, 3399, 3402, 3403, 3411
** ... 10 like lines cut
*Nset, nset=Set-5, instance=Part-1-1
   1,   4,   9,  10,  22,  23,  24,  25,  26,  27,  28,  29,  30,  98,  99, 100
 101, 102, 103, 104, 105, 106, 107, 108, 109, 110, 111, 112, 113, 114, 115, 116
 117, 118, 119, 120, 121, 122, 123, 124, 125, 126, 127, 128, 129, 130, 131, 132
 133, 134, 135, 136, 137, 138, 139, 140, 141, 142, 143, 144, 445, 446, 447, 448
 449, 450, 451, 452, 453, 454, 455, 456, 457, 458, 459, 460, 461, 462, 463, 464
 465, 466, 467, 468, 469, 470, 471, 472, 473, 474, 475, 476, 477, 478, 479, 480
 481, 482, 483, 484, 485, 486, 487, 488, 489, 490, 491, 492, 493, 494, 495, 496
 497, 498, 499, 500, 501, 502, 503, 504, 505, 506, 507, 508, 509, 510, 511, 512
 513, 514, 515, 516, 517, 518, 519, 520, 521, 522, 523, 524, 525, 526, 527, 528
 529, 530, 531, 532, 533, 534, 535, 536, 537, 538, 539, 540, 541, 542, 543, 544
 545, 546, 547, 548, 549, 550, 551, 552, 553, 554, 555, 556, 557, 558, 559, 560
 561, 562, 563, 564, 565, 566, 567, 568, 569, 570, 571, 572, 573, 574, 575, 576
 577, 578, 579, 580, 581, 582, 583, 584, 585, 586, 587, 588, 589, 590, 591, 592
 593, 594, 595, 596, 597, 598, 599, 600, 601, 602, 603, 604, 605, 606, 607, 608
 609, 610, 611, 612, 613, 614, 615
*Elset, elset=Set-5, instance=Part-1-1
  225,  759, 1325, 1650, 1681, 1688, 1698, 1710, 1711, 1720, 1721, 1735, 1738, 1744, 1750, 1810
 1813, 1817, 1835, 1863, 1875, 1880, 1893, 1933, 1937, 1949, 1985, 1991, 1999, 2001, 2006, 2015
 2020, 2035, 2039, 2041, 2071, 2085, 2118, 2165, 2174, 2204, 2209, 2217, 2465, 2471, 2475, 2493
 2574, 2605, 2743, 2747, 2749, 2754, 2848, 2945, 2988, 3002, 3266, 3272, 3304, 3321, 3332, 3344
 3346, 3354, 3355, 3358, 3425, 3431, 3443, 3445, 3446, 3458, 3470, 3477, 3480, 3485, 3493, 3521
 3528, 3531, 3540, 3557, 3572, 3575, 3577, 3641, 3656, 3666, 3681, 3727, 3786, 3787, 3837, 3838
 3845, 3849, 3876, 3916, 3930, 3932, 3943, 3947, 3948, 3950, 3960, 3966, 3971, 3980, 4038, 4040
 4043, 4049, 4053, 4058, 4065, 4077, 4081, 4084, 4098, 4100, 4101, 4112, 4113, 4117, 4120, 4127
 4128, 4131, 4139, 4152, 4153, 4158, 4161, 4168, 4170, 4172, 4183, 4198, 4199, 4209, 4216, 4223
 4225, 4227, 4230, 4239, 4245, 4249, 4260, 4283, 4286, 4291, 4301, 4309, 4319, 4322, 4323, 4328
 4335, 4337, 4344, 4347, 4350, 4354, 4358, 4369, 4371, 4374, 4375, 4376, 4392, 4398, 4400, 4401
 4403, 4404, 4410, 4421, 4430, 4432, 4439, 4441, 4447, 4452, 4454, 4456, 4461, 4470, 4477, 4480
 4481, 4482, 4483, 4497, 4507, 4514, 4518, 4531, 4536, 4540, 4555, 4557, 4565, 4570, 4573, 4577
 4580, 4581, 4586, 4593, 4597, 4611, 4620, 4622, 4626, 4639, 4640, 4651, 4662, 4665, 4666, 4670
 4676, 4678, 4681, 4682, 4692, 4696, 4701, 4704, 4706, 4707, 4716, 4721, 4724, 4727, 4737, 4740
 4742, 4746, 4752, 4757, 4759, 4770, 4773, 4776, 4780, 4783, 4786, 4788, 4794, 4795, 4799, 4801
 4802, 4806, 4808, 4816, 4822, 4827, 4846, 4852, 4853, 4855, 4857, 4870, 4873, 4876, 4877, 4879
 4881, 4892, 4894, 4898, 4908, 4909, 4917, 4927, 4931, 4933, 4937, 4945, 4947, 4951, 4955, 4956
 4959, 4962, 4963, 4966, 4973, 4974, 4975, 4980, 4981, 4987, 4994, 4997, 4998, 5003, 5006, 5013
 5016, 5017, 5018, 5030, 5037, 5051, 5054, 5057, 5059, 5063, 5065, 5070, 5075, 5082, 5083, 5088
** ... 5 like lines cut
*End Assembly
** 
** MATERIALS
** 
*Material, name=Material-1
*Conductivity
112320.,
*Density
2690.,
*Specific Heat
840.,
** ----------------------------------------------------------------
** 
** STEP: Step-1
** 
*Step, name=Step-1, nlgeom=NO
*Heat Transfer, end=PERIOD
1., 5., , ,
** 
** BOUNDARY CONDITIONS
** 
** Name: BC-1 Type: Temperature
*Boundary
Set-4, 11, 11, 20.
** Name: BC-2 Type: Temperature
*Boundary
Set-5, 11, 11, 5.
** 
** OUTPUT REQUESTS
** 
*Restart, write, frequency=0
** 
** FIELD OUTPUT: F-Output-1
** 
*Output, field
*Node Output
NT, 
*Element Output, directions=YES
TEMP, 
*Output, history, frequency=0
*End Step
