*Heading
** Job name: govno Model name: Model-1
** Generated by: Abaqus/CAE 2022
*Preprint, echo=NO, model=NO, history=NO, contact=NO
**
** PARTS
**
*Part, name=Part-1
*End Part
**  
**
** ASSEMBLY
**
*Assembly, name=Assembly
**  
*Instance, name=Part-1-1, part=Part-1
*Node
      1,           0.,    0.9961766,           1.
      2,  0.101666212,    0.9961766,           1.
      3,  0.101666212,    0.9961766,           0.
      4,           0.,    0.9961766,           0.
      5,  0.101666212,  0.898190796,           1.
      6,  0.101666212,  0.898190796,           0.
      7,           1.,           0.,           1.
      8,           1.,           0.,           0.
      9,           0.,           0.,           0.
     10,           0.,           0.,           1.
     11,  0.050833106,    0.9961766,           1.
     12,  0.101666212,    0.9961766,  0.949999988
     13,  0.101666212,    0.9961766,  0.899999976
     14,  0.101666212,    0.9961766,  0.850000024
     15,  0.101666212,    0.9961766,  0.800000012
     16,  0.101666212,    0.9961766,         0.75
     17,  0.101666212,    0.9961766,  0.699999988
     18,  0.101666212,    0.9961766,  0.649999976
     19,  0.101666212,    0.9961766,  0.600000024
     20,  0.101666212,    0.9961766,  0.550000012
** ... 4900 like lines cut
*Element, type=DC3D4
    1,  343,   98, 1840,   99
    2, 1841, 1842, 1843, 1844
    3, 1841, 1845, 1846, 1847
    4, 1841, 1845, 1848, 1849
    5, 1844, 1842, 1850, 1841
    6, 1851, 1852, 1853, 1854
    7, 1841, 1842, 1849, 1848
    8, 1855, 1856, 1857, 1842
    9, 1858, 1855, 1856, 1857
   10, 1842, 1859, 1860, 1856
   11, 1859, 1842, 1844, 1861
   12, 1842, 1859, 1849, 1860
   13, 1850, 1842, 1844, 1859
   14, 1841, 1842, 1848, 1855
   15, 1842, 1859, 1850, 1849
   16, 1862, 1863, 1864, 1865
   17, 1862, 1865, 1866, 1867
   18,  726,  116,  115,  827
   19, 1868, 1869, 1866, 1870
   20, 1623, 1871, 1872, 1873
** ... 23883 like lines cut
*Nset, nset=Set-1, generate
    1,  4920,     1
*Elset, elset=Set-1, generate
     1,  23903,      1
** Section: Section-1
*Solid Section, elset=Set-1, material=Material-1
,
*End Instance
**  
*Nset, nset=Set-4, instance=Part-1-1
    1,    4,    9,   10,   32,   33,   34,   35,   36,   37,   38,   39,   40,   41,   42,   43
   44,   45,   46,   47,   48,   49,   50,  158,  159,  160,  161,  162,  163,  164,  165,  166
  167,  168,  169,  170,  171,  172,  173,  174,  175,  176,  177,  178,  179,  180,  181,  182
  183,  184,  185,  186,  187,  188,  189,  190,  191,  192,  193,  194,  195,  196,  197,  198
  199,  200,  201,  202,  203,  204,  205,  206,  207,  208,  209,  210,  211,  212,  213,  214
  923,  924,  925,  926,  927,  928,  929,  930,  931,  932,  933,  934,  935,  936,  937,  938
  939,  940,  941,  942,  943,  944,  945,  946,  947,  948,  949,  950,  951,  952,  953,  954
  955,  956,  957,  958,  959,  960,  961,  962,  963,  964,  965,  966,  967,  968,  969,  970
  971,  972,  973,  974,  975,  976,  977,  978,  979,  980,  981,  982,  983,  984,  985,  986
  987,  988,  989,  990,  991,  992,  993,  994,  995,  996,  997,  998,  999, 1000, 1001, 1002
 1003, 1004, 1005, 1006, 1007, 1008, 1009, 1010, 1011, 1012, 1013, 1014, 1015, 1016, 1017, 1018
 1019, 1020, 1021, 1022, 1023, 1024, 1025, 1026, 1027, 1028, 1029, 1030, 1031, 1032, 1033, 1034
 1035, 1036, 1037, 1038, 1039, 1040, 1041, 1042, 1043, 1044, 1045, 1046, 1047, 1048, 1049, 1050
 1051, 1052, 1053, 1054, 1055, 1056, 1057, 1058, 1059, 1060, 1061, 1062, 1063, 1064, 1065, 1066
 1067, 1068, 1069, 1070, 1071, 1072, 1073, 1074, 1075, 1076, 1077, 1078, 1079, 1080, 1081, 1082
 1083, 1084, 1085, 1086, 1087, 1088, 1089, 1090, 1091, 1092, 1093, 1094, 1095, 1096, 1097, 1098
 1099, 1100, 1101, 1102, 1103, 1104, 1105, 1106, 1107, 1108, 1109, 1110, 1111, 1112, 1113, 1114
 1115, 1116, 1117, 1118, 1119, 1120, 1121, 1122, 1123, 1124, 1125, 1126, 1127, 1128, 1129, 1130
 1131, 1132, 1133, 1134, 1135, 1136, 1137, 1138, 1139, 1140, 1141, 1142, 1143, 1144, 1145, 1146
 1147, 1148, 1149, 1150, 1151, 1152, 1153, 1154, 1155, 1156, 1157, 1158, 1159, 1160, 1161, 1162
** ... 8 like lines cut
*Elset, elset=Set-4, instance=Part-1-1
   139,   160,   239,   293,   340,   592,   787,   862,  1074,  1346,  1427,  1490,  1583,  1694,  1713,  2128
  2146,  2266,  2348,  2493,  2525,  2561,  2598,  2635,  2689,  2716,  2744,  2751,  2764,  2775,  2776,  2778
  2782,  2813,  2827,  2835,  2853,  2864,  2865,  2880,  2906,  2928,  2935,  2955,  3014,  3062,  3069,  3175
  3179,  3184,  3190,  3231,  3232,  3241,  3247,  3276,  3283,  3303,  3308,  3317,  3320,  3325,  3335,  3340
  3347,  3348,  3351,  3353,  3362,  3374,  3399,  3411,  3414,  3431,  3493,  3494,  3495,  3521,  3524,  3608
  3773,  3823,  3977,  3978,  4032,  4077,  4142,  4222,  4232,  4248,  4258,  4260,  4330,  4339,  4349,  4350
  4386,  4392,  4476,  4496,  4622,  4636,  4775,  4861,  4866,  4869,  4873,  4913,  5000,  5012,  5015,  5025
  5027,  5128,  5129,  5149,  5168,  5259,  5261,  5284,  5289,  5393,  5401,  5402,  5409,  5515,  5533,  5539
  5542,  5545,  5548,  5790,  5895,  5907,  6247,  6276,  6315,  6325,  6407,  6418,  6458,  6480,  6502,  6544
  6557,  6571,  6614,  6633,  6672,  6685,  6700,  6717,  6722,  6762,  7050,  7057,  7066,  7075,  7133,  7178
  7202,  7205,  7208,  7218,  7234,  7304,  7310,  7318,  7326,  7327,  7329,  7353,  7355,  7362,  7367,  7419
  7423,  7456,  7571,  7605,  7614,  7657,  7666,  7676,  7686,  7687,  7694,  7706,  7710,  7731,  7740,  7746
  7751,  7753,  7770,  7775,  7777,  7795,  7797,  7804,  7807,  7823,  7826,  7827,  7837,  7845,  7846,  7857
  7858,  7861,  7864,  7884,  7889,  7891,  7896,  7897,  7905,  7922,  7929,  7931,  7937,  7953,  7956,  7961
  7963,  7964,  7977,  7996,  7997,  8019,  8031,  8037,  8042,  8050,  8057,  8061,  8067,  8071,  8078,  8081
  8086,  8091,  8094,  8100,  8101,  8102,  8108,  8109,  8116,  8119,  8120,  8121,  8136,  8144,  8153,  8154
  8155,  8164,  8170,  8177,  8184,  8200,  8203,  8213,  8220,  8224,  8232,  8241,  8242,  8251,  8258,  8260
  8261,  8264,  8269,  8273,  8275,  8296,  8302,  8306,  8308,  8322,  8323,  8329,  8333,  8335,  8339,  8344
  8350,  8351,  8355,  8363,  8367,  8368,  8371,  8376,  8387,  8393,  8402,  8406,  8409,  8422,  8423,  8424
  8425,  8428,  8432,  8443,  8444,  8471,  8476,  8478,  8479,  8480,  8501,  8502,  8513,  8525,  8526,  8529
** ... 30 like lines cut
*Nset, nset=Set-5, instance=Part-1-1
   1,   2,   3,   4,   5,   6,   7,   8,  11,  12,  13,  14,  15,  16,  17,  18
  19,  20,  21,  22,  23,  24,  25,  26,  27,  28,  29,  30,  31,  32,  33,  34
  35,  36,  37,  38,  39,  40,  41,  42,  43,  44,  45,  46,  47,  48,  49,  50
  51,  52,  53,  54,  55,  56,  57,  58,  59,  60,  61,  62,  63,  64,  65,  66
  67,  68,  69,  70,  71,  72,  73,  74,  75,  76,  77,  78,  79,  80,  81,  82
  83,  84,  85,  86,  87,  88,  89,  90,  91,  92,  93,  94,  95,  96,  97,  98
  99, 100, 101, 102, 103, 104, 105, 106, 107, 108, 109, 110, 111, 112, 113, 114
 115, 116, 117, 118, 119, 120, 121, 122, 123, 124, 125, 126, 127, 128, 129, 130
 131, 132, 133, 134, 135, 136, 137, 138, 234, 235, 236, 237, 238, 239, 240, 241
 242, 243, 244, 245, 246, 247, 248, 249, 250, 251, 252, 253, 254, 255, 256, 257
 258, 259, 260, 261, 262, 263, 264, 265, 266, 267, 268, 269, 270, 271, 272, 273
 274, 275, 276, 277, 278, 279, 280, 281, 282, 283, 284, 285, 286, 287, 288, 289
 290, 291, 292, 293, 294, 295, 296, 297, 298, 299, 300, 301, 302, 303, 304, 305
 306, 307, 308, 309, 310, 311, 312, 313, 314, 315, 316, 317, 318, 319, 320, 321
 322, 323, 324, 325, 326, 327, 328, 329, 330, 331, 332, 333, 334, 335, 336, 337
 338, 339, 340, 341, 342, 343, 344, 345, 346, 347, 348, 349, 350, 351, 352, 353
 354, 355, 356, 357, 358, 359, 360, 361, 362, 363, 364, 365, 366, 367, 368, 369
 370, 371, 372, 373, 374, 375, 376, 377, 378, 379, 380, 381, 382, 383, 384, 385
 386, 387, 388, 389, 390, 391, 392, 393, 394, 395, 396, 397, 398, 399, 400, 401
 402, 403, 404, 405, 406, 407, 408, 409, 410, 411, 412, 413, 414, 415, 416, 417
** ... 20 like lines cut
*Elset, elset=Set-5, instance=Part-1-1
     1,    18,   133,   180,   261,   263,   269,   287,   387,   520,   548,   665,   683,   705,   748,   877
   921,   947,  1029,  1169,  1276,  1315,  1354,  1397,  1399,  1507,  1549,  1552,  1654,  1712,  1787,  1903
  1958,  2074,  2075,  2144,  2159,  2207,  2281,  2376,  2500,  2514,  2515,  2527,  2539,  2553,  2557,  2570
  2573,  2575,  2581,  2595,  2600,  2602,  2607,  2611,  2612,  2632,  2634,  2643,  2649,  2683,  2691,  2696
  2724,  2740,  2763,  2786,  2787,  2791,  2794,  2795,  2797,  2807,  2833,  2848,  2851,  2862,  2874,  2883
  2889,  2891,  2900,  2916,  2957,  2958,  2959,  2971,  2975,  2976,  2995,  2998,  3013,  3016,  3018,  3021
  3022,  3040,  3041,  3057,  3068,  3074,  3075,  3079,  3087,  3090,  3099,  3106,  3109,  3114,  3116,  3127
  3128,  3131,  3132,  3136,  3144,  3156,  3158,  3178,  3180,  3191,  3193,  3196,  3202,  3212,  3219,  3237
  3248,  3251,  3259,  3270,  3281,  3282,  3287,  3292,  3297,  3298,  3299,  3301,  3309,  3318,  3338,  3339
  3344,  3346,  3361,  3363,  3366,  3369,  3373,  3375,  3417,  3419,  3422,  3426,  3438,  3439,  3442,  3443
  3447,  3452,  3455,  3457,  3466,  3467,  3481,  3482,  3483,  3500,  3503,  3526,  3530,  3532,  3533,  3543
  3552,  3558,  3571,  3573,  3580,  3582,  3583,  3589,  3599,  3601,  3602,  3609,  3612,  3614,  3624,  3626
  3634,  3643,  3648,  3658,  3660,  3670,  3671,  3673,  3677,  3678,  3686,  3689,  3703,  3706,  3717,  3737
  3742,  3749,  3755,  3758,  3765,  3771,  3783,  3793,  3812,  3813,  3816,  3826,  3829,  3830,  3834,  3835
  3838,  3841,  3844,  3846,  3855,  3856,  3858,  3859,  3866,  3868,  3873,  3891,  3896,  3905,  3910,  3911
  3912,  3915,  3919,  3921,  3922,  3923,  3928,  3930,  3934,  3938,  3941,  3961,  3963,  3964,  3965,  3973
  3974,  3984,  3986,  3993,  3995,  4003,  4015,  4017,  4025,  4028,  4029,  4030,  4035,  4045,  4046,  4051
  4054,  4056,  4057,  4061,  4062,  4063,  4082,  4086,  4090,  4095,  4098,  4104,  4105,  4108,  4110,  4111
  4115,  4126,  4127,  4129,  4136,  4137,  4140,  4144,  4146,  4148,  4154,  4155,  4167,  4169,  4171,  4175
  4184,  4188,  4192,  4245,  4249,  4252,  4255,  4269,  4277,  4286,  4289,  4291,  4296,  4299,  4303,  4306
** ... 53 like lines cut
*End Assembly
** 
** MATERIALS
** 
*Material, name=Material-1
*Conductivity
112320.,
*Density
2690.,
*Specific Heat
840.,
** ----------------------------------------------------------------
** 
** STEP: Step-1
** 
*Step, name=Step-1, nlgeom=NO
*Heat Transfer, end=PERIOD
1., 10., , ,
** 
** BOUNDARY CONDITIONS
** 
** Name: BC-1 Type: Temperature
*Boundary
Set-4, 11, 11, 5.
** Name: BC-2 Type: Temperature
*Boundary
Set-5, 11, 11, 20.
** 
** OUTPUT REQUESTS
** 
*Restart, write, frequency=0
** 
** FIELD OUTPUT: F-Output-1
** 
*Output, field
*Node Output
NT, 
*Element Output, directions=YES
TEMP, 
*Output, history, frequency=0
*End Step
