*Heading
** Job name: test_384elements Model name: Model-1
** Generated by: Abaqus/CAE 2022
*Preprint, echo=NO, model=NO, history=NO, contact=NO
**
** PARTS
**
*Part, name=dam
*End Part
**  
**
** ASSEMBLY
**
*Assembly, name=Assembly
**  
*Instance, name=dam-1, part=dam
*Node
      1,          20.,           0.
      2,           0.,           0.
      3,           5.,          30.
      4,           5.,          35.
      5,           0.,          35.
      6,   18.4615383,           0.
      7,   16.9230766,           0.
      8,   15.3846149,           0.
      9,   13.8461542,           0.
     10,   12.3076925,           0.
     11,   10.7692308,           0.
     12,   9.23076916,           0.
     13,   7.69230747,           0.
     14,   6.15384626,           0.
     15,   4.61538458,           0.
     16,   3.07692313,           0.
     17,   1.53846157,           0.
     18,   5.68181801,    28.636364
     19,   6.36363649,    27.272728
     20,    7.0454545,     25.90909
** ... 205 like lines cut
*Element, type=DC2D3
  1, 149, 114,  17
  2, 225, 118, 112
  3, 159, 113,  39
  4,   6,   1,  38
  5,  98,   6,  38
  6, 111,   7,  98
  7, 111, 103,   8
  8, 192, 189, 151
  9, 104,   9, 103
 10, 182, 140, 180
 11, 106,  11, 105
 12, 107,  12, 106
 13, 172,  76, 114
 14,  76,  45,  44
 15, 110,  15, 109
 16, 115,  71,  70
 17, 117,  95,  85
 18, 179, 116, 120
 19, 179, 143, 116
 20, 145, 134,  90
** ... 364 like lines cut
*Nset, nset=Set-1, generate
   1,  225,    1
*Elset, elset=Set-1, generate
   1,  384,    1
** Section: dam
*Solid Section, elset=Set-1, material=concrete
,
*End Instance
**  
*Nset, nset=Set-5, instance=dam-1
  2,  5, 43, 44, 45, 46, 47, 48, 49, 50, 51, 52, 53, 54, 55, 56
 57, 58, 59, 60, 61, 62, 63, 64
*Elset, elset=Set-5, instance=dam-1
 14, 39, 40, 41, 43, 51, 52, 59, 63, 66, 68, 70, 72, 74, 76, 80
 82, 88, 90, 92, 94, 96, 98
*Nset, nset=Set-6, instance=dam-1
  1,  2,  6,  7,  8,  9, 10, 11, 12, 13, 14, 15, 16, 17
*Elset, elset=Set-6, instance=dam-1
   4,  41, 130, 139, 142, 144, 146, 148, 150, 152, 154, 155, 162
*End Assembly
** 
** MATERIALS
** 
*Material, name=concrete
*Conductivity
 0.5,
*Density
2400.,
*Specific Heat
 1.05e-06,
** ----------------------------------------------------------------
** 
** STEP: heat transfer
** 
*Step, name="heat transfer", nlgeom=NO, inc=1000
*Heat Transfer, end=SS
0.01, 1., , ,1.
** 
** BOUNDARY CONDITIONS
** 
** Name: BC-1 Type: Temperature
*Boundary
Set-5, 11, 11, 20.
** Name: BC-2 Type: Temperature
*Boundary
Set-6, 11, 11, 3.
** 
** OUTPUT REQUESTS
** 
*Restart, write, frequency=0
** 
** FIELD OUTPUT: F-Output-1
** 
*Output, field
*Node Output
NT, 
*Element Output, directions=YES
TEMP, 
*Output, history, frequency=0
*End Step
