*Heading
** Job name: test_2_feb Model name: Model-1
** Generated by: Abaqus/CAE 2022
*Preprint, echo=NO, model=NO, history=NO, contact=NO
**
** PARTS
**
*Part, name=dam
*End Part
**  
**
** ASSEMBLY
**
*Assembly, name=Assembly
**  
*Instance, name=dam-1, part=dam
*Node
      1,          70.,           0.
      2,           0.,           0.
      3,          10.,          85.
      4,          10.,          95.
      5,           0.,          95.
      6,          35.,           0.
      7,          30.,   56.6666679
      8,          50.,    28.333334
      9,           0.,         47.5
     10,          23.,         26.5
*Element, type=DC2D3
 1, 10,  9,  2
 2,  9,  3,  5
 3,  5,  3,  4
 4,  6,  1,  8
 5,  9,  7,  3
 6, 10,  7,  9
 7, 10,  2,  6
 8, 10,  6,  8
 9, 10,  8,  7
*Nset, nset=Set-1, generate
  1,  10,   1
*Elset, elset=Set-1, generate
 1,  9,  1
** Section: dam
*Solid Section, elset=Set-1, material=d
,
*End Instance
**  
*Nset, nset=Set-3, instance=dam-1
 2, 5, 9
*Elset, elset=Set-3, instance=dam-1
 1, 2
*Nset, nset=Set-4, instance=dam-1
 1, 3, 4, 5, 7, 8
*Elset, elset=Set-4, instance=dam-1
 3, 4, 5, 9
*End Assembly
** 
** MATERIALS
** 
*Material, name=d
*Conductivity
800.,
*Density
1500.,
*Elastic
 2e+10, 0.3
*Specific Heat
 0.1,
** ----------------------------------------------------------------
** 
** STEP: ht
** 
*Step, name=ht, nlgeom=NO
*Heat Transfer, end=PERIOD
0.1, 1., , ,
** 
** BOUNDARY CONDITIONS
** 
** Name: T_air Type: Temperature
*Boundary
Set-4, 11, 11, 20.
** Name: T_water Type: Temperature
*Boundary
Set-3, 11, 11, 5.
** 
** OUTPUT REQUESTS
** 
*Restart, write, frequency=0
** 
** FIELD OUTPUT: F-Output-1
** 
*Output, field
*Node Output
NT, 
*Element Output, directions=YES
TEMP, 
*Output, history, frequency=0
*End Step
