*Heading
** Job name: test_2271elements Model name: Model-1
** Generated by: Abaqus/CAE 2022
*Preprint, echo=NO, model=NO, history=NO, contact=NO
**
** PARTS
**
*Part, name=dam
*End Part
**  
**
** ASSEMBLY
**
*Assembly, name=Assembly
**  
*Instance, name=dam-1, part=dam
*Node
      1,    18.787878,           0.
      2,    17.575758,           0.
      3,    16.363636,           0.
      4,    15.151515,           0.
      5,    13.939394,           0.
      6,    12.727273,           0.
      7,    11.515152,           0.
      8,     10.30303,           0.
      9,   8.48484802,           0.
     10,   7.27272749,           0.
     11,     6.060606,           0.
     12,   4.84848499,           0.
     13,   3.63636374,           0.
     14,    2.4242425,           0.
     15,   1.21212125,           0.
     16,          20.,           0.
     17,           0.,           0.
     18,   5.53571415,   28.9285717
     19,   6.33928585,   27.3214283
     20,        6.875,        26.25
** ... 1198 like lines cut
*Element, type=DC2D3
   1,  509,  318,   15
   2,  455,  359,  318
   3,  458,  456,  360
   4,  457,   52,  361
   5,  461,   53,  362
   6,  462,   54,  363
   7,  463,   55,  364
   8,  464,   56,  365
   9,  475,  474,  169
  10,  476,  466,  368
  11,  477,  467,  369
  12,  478,  468,  370
  13,  479,  469,  371
  14,  470,  441,   62
  15,  441,  428,  373
  16,  442,  429,  374
  17,  443,  430,  375
  18,  431,   66,  376
  19,  432,   67,  377
  20,  433,   68,  378
** ... 2251 like lines cut
*Nset, nset=Set-1, generate
    1,  1218,     1
*Elset, elset=Set-1, generate
    1,  2271,     1
** Section: dam
*Solid Section, elset=Set-1, material=concrete
,
*End Instance
**  
*Nset, nset=Set-5, instance=dam-1
  17,  49,  50,  51,  52,  53,  54,  55,  56,  57,  58,  59,  60,  61,  62,  63
  64,  65,  66,  67,  68,  69,  70,  71,  72,  73,  74,  75,  76, 359, 360, 361
 362, 363, 364, 365, 366, 367, 368, 369, 370, 371, 372, 373, 374, 375, 376, 377
 378, 379, 380, 381, 382, 383, 384, 385, 386, 387, 388
*Elset, elset=Set-5, instance=dam-1
   4,   5,   6,   7,   8,  18,  19,  20,  21,  22,  28, 578, 582, 585, 586, 587
 588, 589, 596, 600, 601, 602, 603, 604, 691, 693, 695, 707, 709, 711, 713, 715
 716, 718, 720, 722, 735, 736, 738, 740, 742, 745, 747, 750, 752, 765, 767, 769
 771, 773, 774, 785, 786, 788, 790, 792, 797, 801
*Nset, nset=Set-6, instance=dam-1
   1,   2,   3,   4,   5,   6,   7,   8,   9,  10,  11,  12,  13,  14,  15,  16
  17, 302, 303, 304, 305, 306, 307, 308, 309, 310, 311, 312, 313, 314, 315, 316
 317, 318
*Elset, elset=Set-6, instance=dam-1
   1,  31,  61,  91, 121, 147, 171, 193, 213, 231, 247, 261, 273, 283, 291, 298
 525, 526, 528, 529, 530, 531, 532, 533, 582, 814, 829, 841, 843, 845, 847, 849
 851,
*End Assembly
** 
** MATERIALS
** 
*Material, name=concrete
*Conductivity
 0.5,
*Density
2400.,
*Specific Heat
 1.05e-06,
** ----------------------------------------------------------------
** 
** STEP: heat transfer
** 
*Step, name="heat transfer", nlgeom=NO, inc=1000
*Heat Transfer, end=SS
0.01, 1., , ,1.
** 
** BOUNDARY CONDITIONS
** 
** Name: BC-1 Type: Temperature
*Boundary
Set-5, 11, 11, 20.
** Name: BC-2 Type: Temperature
*Boundary
Set-6, 11, 11, 3.
** 
** OUTPUT REQUESTS
** 
*Restart, write, frequency=0
** 
** FIELD OUTPUT: F-Output-1
** 
*Output, field
*Node Output
NT, 
*Element Output, directions=YES
TEMP, 
*Output, history, frequency=0
*End Step
